<?xml version="1.0" encoding="UTF-8"?>

<!-- generated on 2023-06-30 22:43:54.186550 by randomTrips.py UNKNOWN
<configuration>
    <net-file value="nets/2way-single-intersection/single-intersection.net.xml"/>
    <route-file value="training/routes/2x2_tr_ep10.rou.xml"/>
    <seed value="10"/>
    <validate value="True"/>
    <end value="500.0"/>
</configuration>
-->

<!-- generated on 2023-06-30 22:43:54 by Eclipse SUMO duarouter Version v1_17_0+1256-16eabe86c67
<configuration xmlns:xsi="http://www.w3.org/2001/XMLSchema-instance" xsi:noNamespaceSchemaLocation="http://sumo.dlr.de/xsd/duarouterConfiguration.xsd">

    <input>
        <net-file value="nets/2way-single-intersection/single-intersection.net.xml"/>
        <route-files value="trips.trips.xml"/>
    </input>

    <output>
        <output-file value="training/routes/2x2_tr_ep10.rou.xml"/>
        <alternatives-output value="NUL"/>
    </output>

    <time>
        <begin value="0"/>
        <end value="500.0"/>
    </time>

    <report>
        <no-warnings value="true"/>
        <ignore-errors value="true"/>
        <no-step-log value="true"/>
    </report>

</configuration>
-->

<routes xmlns:xsi="http://www.w3.org/2001/XMLSchema-instance" xsi:noNamespaceSchemaLocation="http://sumo.dlr.de/xsd/routes_file.xsd">
    <vehicle id="0" depart="45.0">
        <route edges="s_t t_n"/>
    </vehicle>
    <vehicle id="1" depart="82.0">
        <route edges="s_t t_e"/>
    </vehicle>
    <vehicle id="2" depart="148.0">
        <route edges="w_t t_n n_t t_w"/>
    </vehicle>
    <vehicle id="3" depart="182.0">
        <route edges="s_t t_e"/>
    </vehicle>
    <vehicle id="4" depart="233.0">
        <route edges="s_t t_n"/>
    </vehicle>
    <vehicle id="5" depart="237.0">
        <route edges="e_t t_w"/>
    </vehicle>
    <vehicle id="6" depart="251.0">
        <route edges="w_t t_e"/>
    </vehicle>
    <vehicle id="7" depart="263.0">
        <route edges="w_t t_s"/>
    </vehicle>
    <vehicle id="8" depart="284.0">
        <route edges="n_t t_e e_t t_n"/>
    </vehicle>
    <vehicle id="9" depart="285.0">
        <route edges="s_t t_n"/>
    </vehicle>
    <vehicle id="10" depart="298.0">
        <route edges="s_t t_e e_t t_s"/>
    </vehicle>
    <vehicle id="11" depart="307.0">
        <route edges="e_t t_w"/>
    </vehicle>
    <vehicle id="12" depart="313.0">
        <route edges="w_t t_n n_t t_w"/>
    </vehicle>
    <vehicle id="13" depart="317.0">
        <route edges="s_t t_e"/>
    </vehicle>
    <vehicle id="14" depart="319.0">
        <route edges="e_t t_s s_t t_e"/>
    </vehicle>
    <vehicle id="15" depart="330.0">
        <route edges="w_t t_n"/>
    </vehicle>
    <vehicle id="16" depart="341.0">
        <route edges="n_t t_w"/>
    </vehicle>
    <vehicle id="17" depart="342.0">
        <route edges="n_t t_s"/>
    </vehicle>
    <vehicle id="18" depart="361.0">
        <route edges="n_t t_e"/>
    </vehicle>
    <vehicle id="19" depart="370.0">
        <route edges="s_t t_w"/>
    </vehicle>
    <vehicle id="20" depart="372.0">
        <route edges="e_t t_s s_t t_e"/>
    </vehicle>
    <vehicle id="21" depart="385.0">
        <route edges="n_t t_e"/>
    </vehicle>
    <vehicle id="22" depart="386.0">
        <route edges="n_t t_w"/>
    </vehicle>
    <vehicle id="23" depart="413.0">
        <route edges="s_t t_e e_t t_s"/>
    </vehicle>
    <vehicle id="24" depart="420.0">
        <route edges="w_t t_e"/>
    </vehicle>
    <vehicle id="25" depart="421.0">
        <route edges="s_t t_n"/>
    </vehicle>
    <vehicle id="26" depart="434.0">
        <route edges="s_t t_e"/>
    </vehicle>
    <vehicle id="27" depart="437.0">
        <route edges="w_t t_e"/>
    </vehicle>
    <vehicle id="28" depart="440.0">
        <route edges="e_t t_w"/>
    </vehicle>
    <vehicle id="29" depart="444.0">
        <route edges="w_t t_n"/>
    </vehicle>
    <vehicle id="30" depart="467.0">
        <route edges="n_t t_e"/>
    </vehicle>
    <vehicle id="31" depart="484.0">
        <route edges="n_t t_s"/>
    </vehicle>
    <vehicle id="32" depart="486.0">
        <route edges="e_t t_s s_t t_e"/>
    </vehicle>
    <vehicle id="33" depart="488.0">
        <route edges="n_t t_e"/>
    </vehicle>
    <vehicle id="34" depart="492.0">
        <route edges="s_t t_w"/>
    </vehicle>
    <vehicle id="35" depart="495.0">
        <route edges="w_t t_n"/>
    </vehicle>
    <vehicle id="36" depart="508.0">
        <route edges="n_t t_e e_t t_n"/>
    </vehicle>
    <vehicle id="37" depart="512.0">
        <route edges="e_t t_s"/>
    </vehicle>
    <vehicle id="38" depart="523.0">
        <route edges="n_t t_e e_t t_n"/>
    </vehicle>
    <vehicle id="39" depart="526.0">
        <route edges="e_t t_n"/>
    </vehicle>
    <vehicle id="40" depart="527.0">
        <route edges="s_t t_n"/>
    </vehicle>
    <vehicle id="41" depart="528.0">
        <route edges="w_t t_s"/>
    </vehicle>
    <vehicle id="42" depart="529.0">
        <route edges="e_t t_s"/>
    </vehicle>
    <vehicle id="43" depart="535.0">
        <route edges="w_t t_s"/>
    </vehicle>
    <vehicle id="44" depart="540.0">
        <route edges="s_t t_e"/>
    </vehicle>
    <vehicle id="45" depart="542.0">
        <route edges="n_t t_e e_t t_n"/>
    </vehicle>
    <vehicle id="46" depart="557.0">
        <route edges="n_t t_e e_t t_n"/>
    </vehicle>
    <vehicle id="47" depart="583.0">
        <route edges="s_t t_e e_t t_s"/>
    </vehicle>
    <vehicle id="48" depart="602.0">
        <route edges="n_t t_e"/>
    </vehicle>
    <vehicle id="49" depart="605.0">
        <route edges="n_t t_w"/>
    </vehicle>
    <vehicle id="50" depart="610.0">
        <route edges="n_t t_e"/>
    </vehicle>
    <vehicle id="51" depart="626.0">
        <route edges="e_t t_s"/>
    </vehicle>
    <vehicle id="52" depart="630.0">
        <route edges="e_t t_s s_t t_e"/>
    </vehicle>
    <vehicle id="53" depart="634.0">
        <route edges="e_t t_n"/>
    </vehicle>
    <vehicle id="54" depart="644.0">
        <route edges="w_t t_n"/>
    </vehicle>
    <vehicle id="55" depart="646.0">
        <route edges="n_t t_e e_t t_n"/>
    </vehicle>
    <vehicle id="56" depart="648.0">
        <route edges="s_t t_n"/>
    </vehicle>
    <vehicle id="57" depart="649.0">
        <route edges="s_t t_w"/>
    </vehicle>
    <vehicle id="58" depart="654.0">
        <route edges="s_t t_n"/>
    </vehicle>
    <vehicle id="59" depart="659.0">
        <route edges="s_t t_w"/>
    </vehicle>
    <vehicle id="60" depart="660.0">
        <route edges="e_t t_s s_t t_e"/>
    </vehicle>
    <vehicle id="61" depart="661.0">
        <route edges="s_t t_e e_t t_s"/>
    </vehicle>
    <vehicle id="62" depart="666.0">
        <route edges="s_t t_e e_t t_s"/>
    </vehicle>
    <vehicle id="63" depart="666.0">
        <route edges="w_t t_n"/>
    </vehicle>
    <vehicle id="64" depart="668.0">
        <route edges="w_t t_n n_t t_w"/>
    </vehicle>
    <vehicle id="65" depart="674.0">
        <route edges="n_t t_w"/>
    </vehicle>
    <vehicle id="66" depart="675.0">
        <route edges="s_t t_w"/>
    </vehicle>
    <vehicle id="67" depart="680.0">
        <route edges="e_t t_w"/>
    </vehicle>
    <vehicle id="68" depart="681.0">
        <route edges="w_t t_n n_t t_w"/>
    </vehicle>
    <vehicle id="69" depart="709.0">
        <route edges="w_t t_n"/>
    </vehicle>
    <vehicle id="70" depart="720.0">
        <route edges="s_t t_e"/>
    </vehicle>
    <vehicle id="71" depart="721.0">
        <route edges="s_t t_w"/>
    </vehicle>
    <vehicle id="72" depart="724.0">
        <route edges="e_t t_n"/>
    </vehicle>
    <vehicle id="73" depart="728.0">
        <route edges="e_t t_s s_t t_e"/>
    </vehicle>
    <vehicle id="74" depart="733.0">
        <route edges="e_t t_s s_t t_e"/>
    </vehicle>
    <vehicle id="75" depart="748.0">
        <route edges="w_t t_n n_t t_w"/>
    </vehicle>
    <vehicle id="76" depart="753.0">
        <route edges="n_t t_s"/>
    </vehicle>
    <vehicle id="77" depart="757.0">
        <route edges="s_t t_e e_t t_s"/>
    </vehicle>
    <vehicle id="78" depart="760.0">
        <route edges="n_t t_s"/>
    </vehicle>
    <vehicle id="79" depart="762.0">
        <route edges="s_t t_n"/>
    </vehicle>
    <vehicle id="80" depart="762.0">
        <route edges="n_t t_s"/>
    </vehicle>
    <vehicle id="81" depart="763.0">
        <route edges="s_t t_e"/>
    </vehicle>
    <vehicle id="82" depart="769.0">
        <route edges="s_t t_w"/>
    </vehicle>
    <vehicle id="83" depart="785.0">
        <route edges="w_t t_s"/>
    </vehicle>
    <vehicle id="84" depart="785.0">
        <route edges="e_t t_n"/>
    </vehicle>
    <vehicle id="85" depart="792.0">
        <route edges="e_t t_s s_t t_e"/>
    </vehicle>
    <vehicle id="86" depart="793.0">
        <route edges="n_t t_e e_t t_n"/>
    </vehicle>
    <vehicle id="87" depart="802.0">
        <route edges="w_t t_s"/>
    </vehicle>
    <vehicle id="88" depart="808.0">
        <route edges="n_t t_s"/>
    </vehicle>
    <vehicle id="89" depart="808.0">
        <route edges="s_t t_e e_t t_s"/>
    </vehicle>
    <vehicle id="90" depart="811.0">
        <route edges="n_t t_e e_t t_n"/>
    </vehicle>
    <vehicle id="91" depart="826.0">
        <route edges="n_t t_s"/>
    </vehicle>
    <vehicle id="92" depart="827.0">
        <route edges="n_t t_e e_t t_n"/>
    </vehicle>
    <vehicle id="93" depart="847.0">
        <route edges="n_t t_e e_t t_n"/>
    </vehicle>
    <vehicle id="94" depart="856.0">
        <route edges="s_t t_e e_t t_s"/>
    </vehicle>
    <vehicle id="95" depart="870.0">
        <route edges="w_t t_n"/>
    </vehicle>
    <vehicle id="96" depart="877.0">
        <route edges="w_t t_n n_t t_w"/>
    </vehicle>
    <vehicle id="97" depart="893.0">
        <route edges="w_t t_s"/>
    </vehicle>
    <vehicle id="98" depart="893.0">
        <route edges="e_t t_w"/>
    </vehicle>
    <vehicle id="99" depart="894.0">
        <route edges="w_t t_e"/>
    </vehicle>
    <vehicle id="100" depart="909.0">
        <route edges="n_t t_e e_t t_n"/>
    </vehicle>
    <vehicle id="101" depart="920.0">
        <route edges="s_t t_e e_t t_s"/>
    </vehicle>
    <vehicle id="102" depart="922.0">
        <route edges="n_t t_e"/>
    </vehicle>
    <vehicle id="103" depart="924.0">
        <route edges="e_t t_s s_t t_e"/>
    </vehicle>
    <vehicle id="104" depart="927.0">
        <route edges="w_t t_n n_t t_w"/>
    </vehicle>
    <vehicle id="105" depart="942.0">
        <route edges="e_t t_s"/>
    </vehicle>
    <vehicle id="106" depart="955.0">
        <route edges="w_t t_e"/>
    </vehicle>
    <vehicle id="107" depart="957.0">
        <route edges="s_t t_n"/>
    </vehicle>
    <vehicle id="108" depart="959.0">
        <route edges="w_t t_n n_t t_w"/>
    </vehicle>
    <vehicle id="109" depart="961.0">
        <route edges="e_t t_s s_t t_e"/>
    </vehicle>
    <vehicle id="110" depart="963.0">
        <route edges="w_t t_s"/>
    </vehicle>
    <vehicle id="111" depart="965.0">
        <route edges="s_t t_w"/>
    </vehicle>
    <vehicle id="112" depart="968.0">
        <route edges="w_t t_n n_t t_w"/>
    </vehicle>
    <vehicle id="113" depart="969.0">
        <route edges="n_t t_e"/>
    </vehicle>
    <vehicle id="114" depart="970.0">
        <route edges="s_t t_e"/>
    </vehicle>
    <vehicle id="115" depart="977.0">
        <route edges="s_t t_w"/>
    </vehicle>
    <vehicle id="116" depart="979.0">
        <route edges="n_t t_s"/>
    </vehicle>
    <vehicle id="117" depart="981.0">
        <route edges="e_t t_s s_t t_e"/>
    </vehicle>
    <vehicle id="118" depart="994.0">
        <route edges="s_t t_w"/>
    </vehicle>
    <vehicle id="119" depart="998.0">
        <route edges="w_t t_e"/>
    </vehicle>
    <vehicle id="120" depart="1016.0">
        <route edges="w_t t_s"/>
    </vehicle>
    <vehicle id="121" depart="1020.0">
        <route edges="n_t t_e e_t t_n"/>
    </vehicle>
    <vehicle id="122" depart="1022.0">
        <route edges="s_t t_n"/>
    </vehicle>
    <vehicle id="123" depart="1026.0">
        <route edges="e_t t_w"/>
    </vehicle>
    <vehicle id="124" depart="1031.0">
        <route edges="s_t t_e e_t t_s"/>
    </vehicle>
    <vehicle id="125" depart="1031.0">
        <route edges="s_t t_w"/>
    </vehicle>
    <vehicle id="126" depart="1035.0">
        <route edges="e_t t_w"/>
    </vehicle>
    <vehicle id="127" depart="1037.0">
        <route edges="w_t t_n"/>
    </vehicle>
    <vehicle id="128" depart="1038.0">
        <route edges="s_t t_n"/>
    </vehicle>
    <vehicle id="129" depart="1046.0">
        <route edges="e_t t_n"/>
    </vehicle>
    <vehicle id="130" depart="1048.0">
        <route edges="e_t t_w"/>
    </vehicle>
    <vehicle id="131" depart="1049.0">
        <route edges="e_t t_s"/>
    </vehicle>
    <vehicle id="132" depart="1049.0">
        <route edges="s_t t_w"/>
    </vehicle>
    <vehicle id="133" depart="1051.0">
        <route edges="w_t t_n"/>
    </vehicle>
    <vehicle id="134" depart="1055.0">
        <route edges="n_t t_e"/>
    </vehicle>
    <vehicle id="135" depart="1060.0">
        <route edges="e_t t_n"/>
    </vehicle>
    <vehicle id="136" depart="1066.0">
        <route edges="w_t t_e"/>
    </vehicle>
    <vehicle id="137" depart="1100.0">
        <route edges="e_t t_s"/>
    </vehicle>
    <vehicle id="138" depart="1105.0">
        <route edges="n_t t_e"/>
    </vehicle>
    <vehicle id="139" depart="1108.0">
        <route edges="w_t t_e"/>
    </vehicle>
    <vehicle id="140" depart="1113.0">
        <route edges="s_t t_n"/>
    </vehicle>
    <vehicle id="141" depart="1115.0">
        <route edges="n_t t_e"/>
    </vehicle>
    <vehicle id="142" depart="1115.0">
        <route edges="e_t t_n"/>
    </vehicle>
    <vehicle id="143" depart="1117.0">
        <route edges="w_t t_n"/>
    </vehicle>
    <vehicle id="144" depart="1121.0">
        <route edges="w_t t_n n_t t_w"/>
    </vehicle>
    <vehicle id="145" depart="1122.0">
        <route edges="e_t t_w"/>
    </vehicle>
    <vehicle id="146" depart="1127.0">
        <route edges="s_t t_n"/>
    </vehicle>
    <vehicle id="147" depart="1129.0">
        <route edges="s_t t_w"/>
    </vehicle>
    <vehicle id="148" depart="1129.0">
        <route edges="n_t t_e"/>
    </vehicle>
    <vehicle id="149" depart="1131.0">
        <route edges="w_t t_e"/>
    </vehicle>
    <vehicle id="150" depart="1131.0">
        <route edges="e_t t_s"/>
    </vehicle>
    <vehicle id="151" depart="1132.0">
        <route edges="n_t t_e e_t t_n"/>
    </vehicle>
    <vehicle id="152" depart="1140.0">
        <route edges="s_t t_w"/>
    </vehicle>
    <vehicle id="153" depart="1143.0">
        <route edges="n_t t_w"/>
    </vehicle>
    <vehicle id="154" depart="1148.0">
        <route edges="s_t t_e e_t t_s"/>
    </vehicle>
    <vehicle id="155" depart="1152.0">
        <route edges="s_t t_e"/>
    </vehicle>
    <vehicle id="156" depart="1152.0">
        <route edges="e_t t_s"/>
    </vehicle>
    <vehicle id="157" depart="1155.0">
        <route edges="s_t t_e"/>
    </vehicle>
    <vehicle id="158" depart="1163.0">
        <route edges="s_t t_n"/>
    </vehicle>
    <vehicle id="159" depart="1165.0">
        <route edges="s_t t_n"/>
    </vehicle>
    <vehicle id="160" depart="1165.0">
        <route edges="e_t t_n"/>
    </vehicle>
    <vehicle id="161" depart="1169.0">
        <route edges="w_t t_e"/>
    </vehicle>
    <vehicle id="162" depart="1170.0">
        <route edges="w_t t_s"/>
    </vehicle>
    <vehicle id="163" depart="1175.0">
        <route edges="e_t t_w"/>
    </vehicle>
    <vehicle id="164" depart="1183.0">
        <route edges="e_t t_w"/>
    </vehicle>
    <vehicle id="165" depart="1186.0">
        <route edges="n_t t_w"/>
    </vehicle>
    <vehicle id="166" depart="1190.0">
        <route edges="s_t t_n"/>
    </vehicle>
    <vehicle id="167" depart="1191.0">
        <route edges="s_t t_w"/>
    </vehicle>
    <vehicle id="168" depart="1196.0">
        <route edges="e_t t_s s_t t_e"/>
    </vehicle>
    <vehicle id="169" depart="1203.0">
        <route edges="n_t t_w"/>
    </vehicle>
    <vehicle id="170" depart="1211.0">
        <route edges="e_t t_s s_t t_e"/>
    </vehicle>
    <vehicle id="171" depart="1212.0">
        <route edges="s_t t_e e_t t_s"/>
    </vehicle>
    <vehicle id="172" depart="1214.0">
        <route edges="n_t t_s"/>
    </vehicle>
    <vehicle id="173" depart="1215.0">
        <route edges="e_t t_s s_t t_e"/>
    </vehicle>
    <vehicle id="174" depart="1242.0">
        <route edges="e_t t_s s_t t_e"/>
    </vehicle>
    <vehicle id="175" depart="1249.0">
        <route edges="w_t t_n n_t t_w"/>
    </vehicle>
    <vehicle id="176" depart="1249.0">
        <route edges="e_t t_n"/>
    </vehicle>
    <vehicle id="177" depart="1255.0">
        <route edges="e_t t_n"/>
    </vehicle>
    <vehicle id="178" depart="1273.0">
        <route edges="s_t t_e e_t t_s"/>
    </vehicle>
    <vehicle id="179" depart="1273.0">
        <route edges="w_t t_s"/>
    </vehicle>
    <vehicle id="180" depart="1273.0">
        <route edges="e_t t_n"/>
    </vehicle>
    <vehicle id="181" depart="1278.0">
        <route edges="n_t t_e e_t t_n"/>
    </vehicle>
    <vehicle id="182" depart="1279.0">
        <route edges="e_t t_s"/>
    </vehicle>
    <vehicle id="183" depart="1288.0">
        <route edges="n_t t_s"/>
    </vehicle>
    <vehicle id="184" depart="1305.0">
        <route edges="n_t t_e"/>
    </vehicle>
    <vehicle id="185" depart="1306.0">
        <route edges="n_t t_e"/>
    </vehicle>
    <vehicle id="186" depart="1315.0">
        <route edges="n_t t_e"/>
    </vehicle>
    <vehicle id="187" depart="1315.0">
        <route edges="e_t t_s"/>
    </vehicle>
    <vehicle id="188" depart="1316.0">
        <route edges="e_t t_s s_t t_e"/>
    </vehicle>
    <vehicle id="189" depart="1319.0">
        <route edges="e_t t_s"/>
    </vehicle>
    <vehicle id="190" depart="1329.0">
        <route edges="w_t t_n n_t t_w"/>
    </vehicle>
    <vehicle id="191" depart="1330.0">
        <route edges="s_t t_e e_t t_s"/>
    </vehicle>
    <vehicle id="192" depart="1331.0">
        <route edges="w_t t_n"/>
    </vehicle>
    <vehicle id="193" depart="1334.0">
        <route edges="s_t t_e e_t t_s"/>
    </vehicle>
    <vehicle id="194" depart="1336.0">
        <route edges="s_t t_e e_t t_s"/>
    </vehicle>
    <vehicle id="195" depart="1343.0">
        <route edges="s_t t_e e_t t_s"/>
    </vehicle>
    <vehicle id="196" depart="1345.0">
        <route edges="e_t t_n"/>
    </vehicle>
    <vehicle id="197" depart="1347.0">
        <route edges="s_t t_n"/>
    </vehicle>
    <vehicle id="198" depart="1350.0">
        <route edges="w_t t_n"/>
    </vehicle>
    <vehicle id="199" depart="1356.0">
        <route edges="s_t t_e"/>
    </vehicle>
    <vehicle id="200" depart="1357.0">
        <route edges="n_t t_w"/>
    </vehicle>
    <vehicle id="201" depart="1362.0">
        <route edges="e_t t_s"/>
    </vehicle>
    <vehicle id="202" depart="1363.0">
        <route edges="e_t t_s"/>
    </vehicle>
    <vehicle id="203" depart="1367.0">
        <route edges="n_t t_w"/>
    </vehicle>
    <vehicle id="204" depart="1373.0">
        <route edges="w_t t_n n_t t_w"/>
    </vehicle>
    <vehicle id="205" depart="1376.0">
        <route edges="n_t t_s"/>
    </vehicle>
    <vehicle id="206" depart="1380.0">
        <route edges="e_t t_n"/>
    </vehicle>
    <vehicle id="207" depart="1382.0">
        <route edges="n_t t_e e_t t_n"/>
    </vehicle>
    <vehicle id="208" depart="1384.0">
        <route edges="n_t t_e"/>
    </vehicle>
    <vehicle id="209" depart="1387.0">
        <route edges="s_t t_e e_t t_s"/>
    </vehicle>
    <vehicle id="210" depart="1387.0">
        <route edges="s_t t_w"/>
    </vehicle>
    <vehicle id="211" depart="1390.0">
        <route edges="s_t t_e"/>
    </vehicle>
    <vehicle id="212" depart="1405.0">
        <route edges="s_t t_n"/>
    </vehicle>
    <vehicle id="213" depart="1405.0">
        <route edges="w_t t_e"/>
    </vehicle>
    <vehicle id="214" depart="1407.0">
        <route edges="n_t t_s"/>
    </vehicle>
    <vehicle id="215" depart="1417.0">
        <route edges="w_t t_s"/>
    </vehicle>
    <vehicle id="216" depart="1427.0">
        <route edges="n_t t_w"/>
    </vehicle>
    <vehicle id="217" depart="1431.0">
        <route edges="w_t t_n n_t t_w"/>
    </vehicle>
    <vehicle id="218" depart="1435.0">
        <route edges="s_t t_e"/>
    </vehicle>
    <vehicle id="219" depart="1439.0">
        <route edges="w_t t_n n_t t_w"/>
    </vehicle>
    <vehicle id="220" depart="1441.0">
        <route edges="n_t t_s"/>
    </vehicle>
    <vehicle id="221" depart="1443.0">
        <route edges="w_t t_n n_t t_w"/>
    </vehicle>
    <vehicle id="222" depart="1450.0">
        <route edges="s_t t_e"/>
    </vehicle>
    <vehicle id="223" depart="1451.0">
        <route edges="e_t t_n"/>
    </vehicle>
    <vehicle id="224" depart="1454.0">
        <route edges="n_t t_e e_t t_n"/>
    </vehicle>
    <vehicle id="225" depart="1455.0">
        <route edges="s_t t_w"/>
    </vehicle>
    <vehicle id="226" depart="1458.0">
        <route edges="n_t t_s"/>
    </vehicle>
    <vehicle id="227" depart="1460.0">
        <route edges="e_t t_w"/>
    </vehicle>
    <vehicle id="228" depart="1460.0">
        <route edges="e_t t_s s_t t_e"/>
    </vehicle>
    <vehicle id="229" depart="1466.0">
        <route edges="n_t t_w"/>
    </vehicle>
    <vehicle id="230" depart="1468.0">
        <route edges="s_t t_e e_t t_s"/>
    </vehicle>
    <vehicle id="231" depart="1471.0">
        <route edges="w_t t_n"/>
    </vehicle>
    <vehicle id="232" depart="1472.0">
        <route edges="w_t t_n n_t t_w"/>
    </vehicle>
    <vehicle id="233" depart="1474.0">
        <route edges="s_t t_e e_t t_s"/>
    </vehicle>
    <vehicle id="234" depart="1477.0">
        <route edges="w_t t_s"/>
    </vehicle>
    <vehicle id="235" depart="1496.0">
        <route edges="e_t t_s"/>
    </vehicle>
    <vehicle id="236" depart="1499.0">
        <route edges="n_t t_w"/>
    </vehicle>
    <vehicle id="237" depart="1499.0">
        <route edges="e_t t_s s_t t_e"/>
    </vehicle>
    <vehicle id="238" depart="1499.0">
        <route edges="e_t t_s s_t t_e"/>
    </vehicle>
    <vehicle id="239" depart="1499.0">
        <route edges="n_t t_e"/>
    </vehicle>
    <vehicle id="240" depart="1502.0">
        <route edges="n_t t_s"/>
    </vehicle>
    <vehicle id="241" depart="1502.0">
        <route edges="e_t t_n"/>
    </vehicle>
    <vehicle id="242" depart="1505.0">
        <route edges="n_t t_e"/>
    </vehicle>
    <vehicle id="243" depart="1511.0">
        <route edges="s_t t_e e_t t_s"/>
    </vehicle>
    <vehicle id="244" depart="1525.0">
        <route edges="w_t t_n n_t t_w"/>
    </vehicle>
    <vehicle id="245" depart="1530.0">
        <route edges="e_t t_s"/>
    </vehicle>
    <vehicle id="246" depart="1533.0">
        <route edges="n_t t_w"/>
    </vehicle>
    <vehicle id="247" depart="1534.0">
        <route edges="e_t t_w"/>
    </vehicle>
    <vehicle id="248" depart="1535.0">
        <route edges="n_t t_e"/>
    </vehicle>
    <vehicle id="249" depart="1538.0">
        <route edges="n_t t_w"/>
    </vehicle>
    <vehicle id="250" depart="1542.0">
        <route edges="e_t t_n"/>
    </vehicle>
    <vehicle id="251" depart="1545.0">
        <route edges="e_t t_s s_t t_e"/>
    </vehicle>
    <vehicle id="252" depart="1553.0">
        <route edges="w_t t_s"/>
    </vehicle>
    <vehicle id="253" depart="1554.0">
        <route edges="s_t t_w"/>
    </vehicle>
    <vehicle id="254" depart="1560.0">
        <route edges="e_t t_w"/>
    </vehicle>
    <vehicle id="255" depart="1570.0">
        <route edges="w_t t_n n_t t_w"/>
    </vehicle>
    <vehicle id="256" depart="1572.0">
        <route edges="w_t t_n"/>
    </vehicle>
    <vehicle id="257" depart="1573.0">
        <route edges="e_t t_w"/>
    </vehicle>
    <vehicle id="258" depart="1574.0">
        <route edges="s_t t_e e_t t_s"/>
    </vehicle>
    <vehicle id="259" depart="1585.0">
        <route edges="s_t t_n"/>
    </vehicle>
    <vehicle id="260" depart="1586.0">
        <route edges="s_t t_n"/>
    </vehicle>
    <vehicle id="261" depart="1590.0">
        <route edges="e_t t_n"/>
    </vehicle>
    <vehicle id="262" depart="1592.0">
        <route edges="n_t t_e e_t t_n"/>
    </vehicle>
    <vehicle id="263" depart="1593.0">
        <route edges="s_t t_w"/>
    </vehicle>
    <vehicle id="264" depart="1596.0">
        <route edges="s_t t_e"/>
    </vehicle>
    <vehicle id="265" depart="1596.0">
        <route edges="s_t t_e e_t t_s"/>
    </vehicle>
    <vehicle id="266" depart="1600.0">
        <route edges="w_t t_n"/>
    </vehicle>
    <vehicle id="267" depart="1601.0">
        <route edges="e_t t_n"/>
    </vehicle>
    <vehicle id="268" depart="1611.0">
        <route edges="e_t t_w"/>
    </vehicle>
    <vehicle id="269" depart="1625.0">
        <route edges="e_t t_s"/>
    </vehicle>
    <vehicle id="270" depart="1637.0">
        <route edges="w_t t_e"/>
    </vehicle>
    <vehicle id="271" depart="1640.0">
        <route edges="e_t t_w"/>
    </vehicle>
    <vehicle id="272" depart="1642.0">
        <route edges="n_t t_w"/>
    </vehicle>
    <vehicle id="273" depart="1644.0">
        <route edges="e_t t_n"/>
    </vehicle>
    <vehicle id="274" depart="1647.0">
        <route edges="e_t t_s s_t t_e"/>
    </vehicle>
    <vehicle id="275" depart="1647.0">
        <route edges="e_t t_s"/>
    </vehicle>
    <vehicle id="276" depart="1658.0">
        <route edges="n_t t_e e_t t_n"/>
    </vehicle>
    <vehicle id="277" depart="1659.0">
        <route edges="n_t t_s"/>
    </vehicle>
    <vehicle id="278" depart="1661.0">
        <route edges="n_t t_e"/>
    </vehicle>
    <vehicle id="279" depart="1663.0">
        <route edges="e_t t_s"/>
    </vehicle>
    <vehicle id="280" depart="1665.0">
        <route edges="s_t t_e"/>
    </vehicle>
    <vehicle id="281" depart="1670.0">
        <route edges="s_t t_w"/>
    </vehicle>
    <vehicle id="282" depart="1672.0">
        <route edges="n_t t_w"/>
    </vehicle>
    <vehicle id="283" depart="1681.0">
        <route edges="n_t t_s"/>
    </vehicle>
    <vehicle id="284" depart="1685.0">
        <route edges="w_t t_s"/>
    </vehicle>
    <vehicle id="285" depart="1691.0">
        <route edges="s_t t_n"/>
    </vehicle>
    <vehicle id="286" depart="1694.0">
        <route edges="e_t t_n"/>
    </vehicle>
    <vehicle id="287" depart="1718.0">
        <route edges="s_t t_n"/>
    </vehicle>
    <vehicle id="288" depart="1721.0">
        <route edges="s_t t_n"/>
    </vehicle>
    <vehicle id="289" depart="1727.0">
        <route edges="e_t t_s"/>
    </vehicle>
    <vehicle id="290" depart="1728.0">
        <route edges="s_t t_n"/>
    </vehicle>
    <vehicle id="291" depart="1730.0">
        <route edges="e_t t_w"/>
    </vehicle>
    <vehicle id="292" depart="1730.0">
        <route edges="s_t t_e e_t t_s"/>
    </vehicle>
    <vehicle id="293" depart="1733.0">
        <route edges="e_t t_s"/>
    </vehicle>
    <vehicle id="294" depart="1747.0">
        <route edges="e_t t_n"/>
    </vehicle>
    <vehicle id="295" depart="1753.0">
        <route edges="n_t t_e e_t t_n"/>
    </vehicle>
    <vehicle id="296" depart="1754.0">
        <route edges="w_t t_e"/>
    </vehicle>
    <vehicle id="297" depart="1755.0">
        <route edges="w_t t_n n_t t_w"/>
    </vehicle>
    <vehicle id="298" depart="1756.0">
        <route edges="n_t t_w"/>
    </vehicle>
    <vehicle id="299" depart="1758.0">
        <route edges="s_t t_w"/>
    </vehicle>
    <vehicle id="300" depart="1771.0">
        <route edges="n_t t_w"/>
    </vehicle>
    <vehicle id="301" depart="1772.0">
        <route edges="s_t t_e e_t t_s"/>
    </vehicle>
    <vehicle id="302" depart="1777.0">
        <route edges="w_t t_s"/>
    </vehicle>
    <vehicle id="303" depart="1780.0">
        <route edges="e_t t_s"/>
    </vehicle>
    <vehicle id="304" depart="1786.0">
        <route edges="e_t t_n"/>
    </vehicle>
    <vehicle id="305" depart="1789.0">
        <route edges="s_t t_e"/>
    </vehicle>
    <vehicle id="306" depart="1790.0">
        <route edges="n_t t_e"/>
    </vehicle>
    <vehicle id="307" depart="1794.0">
        <route edges="n_t t_e"/>
    </vehicle>
    <vehicle id="308" depart="1803.0">
        <route edges="s_t t_w"/>
    </vehicle>
    <vehicle id="309" depart="1804.0">
        <route edges="n_t t_s"/>
    </vehicle>
    <vehicle id="310" depart="1805.0">
        <route edges="w_t t_n n_t t_w"/>
    </vehicle>
    <vehicle id="311" depart="1814.0">
        <route edges="w_t t_s"/>
    </vehicle>
    <vehicle id="312" depart="1822.0">
        <route edges="s_t t_e e_t t_s"/>
    </vehicle>
    <vehicle id="313" depart="1839.0">
        <route edges="s_t t_w"/>
    </vehicle>
    <vehicle id="314" depart="1839.0">
        <route edges="e_t t_s"/>
    </vehicle>
    <vehicle id="315" depart="1842.0">
        <route edges="s_t t_e e_t t_s"/>
    </vehicle>
    <vehicle id="316" depart="1847.0">
        <route edges="s_t t_w"/>
    </vehicle>
    <vehicle id="317" depart="1855.0">
        <route edges="w_t t_s"/>
    </vehicle>
    <vehicle id="318" depart="1857.0">
        <route edges="w_t t_n n_t t_w"/>
    </vehicle>
    <vehicle id="319" depart="1860.0">
        <route edges="n_t t_w"/>
    </vehicle>
    <vehicle id="320" depart="1862.0">
        <route edges="w_t t_s"/>
    </vehicle>
    <vehicle id="321" depart="1863.0">
        <route edges="w_t t_e"/>
    </vehicle>
    <vehicle id="322" depart="1864.0">
        <route edges="w_t t_e"/>
    </vehicle>
    <vehicle id="323" depart="1865.0">
        <route edges="n_t t_s"/>
    </vehicle>
    <vehicle id="324" depart="1868.0">