<?xml version="1.0" encoding="UTF-8"?>

<!-- generated on 2023-06-30 22:42:47.239300 by randomTrips.py UNKNOWN
<configuration>
    <net-file value="nets/2way-single-intersection/single-intersection.net.xml"/>
    <route-file value="training/routes/2x2_tr_ep6.rou.xml"/>
    <seed value="6"/>
    <validate value="True"/>
    <end value="500.0"/>
</configuration>
-->

<!-- generated on 2023-06-30 22:42:47 by Eclipse SUMO duarouter Version v1_17_0+1256-16eabe86c67
<configuration xmlns:xsi="http://www.w3.org/2001/XMLSchema-instance" xsi:noNamespaceSchemaLocation="http://sumo.dlr.de/xsd/duarouterConfiguration.xsd">

    <input>
        <net-file value="nets/2way-single-intersection/single-intersection.net.xml"/>
        <route-files value="trips.trips.xml"/>
    </input>

    <output>
        <output-file value="training/routes/2x2_tr_ep6.rou.xml"/>
        <alternatives-output value="NUL"/>
    </output>

    <time>
        <begin value="0"/>
        <end value="500.0"/>
    </time>

    <report>
        <no-warnings value="true"/>
        <ignore-errors value="true"/>
        <no-step-log value="true"/>
    </report>

</configuration>
-->

<routes xmlns:xsi="http://www.w3.org/2001/XMLSchema-instance" xsi:noNamespaceSchemaLocation="http://sumo.dlr.de/xsd/routes_file.xsd">
    <vehicle id="0" depart="66.0">
        <route edges="w_t t_n n_t t_w"/>
    </vehicle>
    <vehicle id="1" depart="66.0">
        <route edges="n_t t_e e_t t_n"/>
    </vehicle>
    <vehicle id="2" depart="91.0">
        <route edges="e_t t_s"/>
    </vehicle>
    <vehicle id="3" depart="106.0">
        <route edges="n_t t_w"/>
    </vehicle>
    <vehicle id="4" depart="108.0">
        <route edges="n_t t_w"/>
    </vehicle>
    <vehicle id="5" depart="114.0">
        <route edges="n_t t_w"/>
    </vehicle>
    <vehicle id="6" depart="124.0">
        <route edges="s_t t_n"/>
    </vehicle>
    <vehicle id="7" depart="179.0">
        <route edges="s_t t_e e_t t_s"/>
    </vehicle>
    <vehicle id="8" depart="194.0">
        <route edges="e_t t_s"/>
    </vehicle>
    <vehicle id="9" depart="198.0">
        <route edges="w_t t_n"/>
    </vehicle>
    <vehicle id="10" depart="210.0">
        <route edges="w_t t_s"/>
    </vehicle>
    <vehicle id="11" depart="255.0">
        <route edges="w_t t_n"/>
    </vehicle>
    <vehicle id="12" depart="258.0">
        <route edges="e_t t_w"/>
    </vehicle>
    <vehicle id="13" depart="269.0">
        <route edges="w_t t_n"/>
    </vehicle>
    <vehicle id="14" depart="276.0">
        <route edges="e_t t_s s_t t_e"/>
    </vehicle>
    <vehicle id="15" depart="279.0">
        <route edges="s_t t_n"/>
    </vehicle>
    <vehicle id="16" depart="311.0">
        <route edges="w_t t_s"/>
    </vehicle>
    <vehicle id="17" depart="323.0">
        <route edges="e_t t_s"/>
    </vehicle>
    <vehicle id="18" depart="336.0">
        <route edges="n_t t_w"/>
    </vehicle>
    <vehicle id="19" depart="343.0">
        <route edges="w_t t_s"/>
    </vehicle>
    <vehicle id="20" depart="363.0">
        <route edges="s_t t_e e_t t_s"/>
    </vehicle>
    <vehicle id="21" depart="364.0">
        <route edges="w_t t_n n_t t_w"/>
    </vehicle>
    <vehicle id="22" depart="367.0">
        <route edges="e_t t_n"/>
    </vehicle>
    <vehicle id="23" depart="384.0">
        <route edges="s_t t_n"/>
    </vehicle>
    <vehicle id="24" depart="415.0">
        <route edges="s_t t_e"/>
    </vehicle>
    <vehicle id="25" depart="416.0">
        <route edges="w_t t_s"/>
    </vehicle>
    <vehicle id="26" depart="416.0">
        <route edges="e_t t_s"/>
    </vehicle>
    <vehicle id="27" depart="417.0">
        <route edges="n_t t_e"/>
    </vehicle>
    <vehicle id="28" depart="431.0">
        <route edges="n_t t_e"/>
    </vehicle>
    <vehicle id="29" depart="435.0">
        <route edges="e_t t_w"/>
    </vehicle>
    <vehicle id="30" depart="444.0">
        <route edges="s_t t_e"/>
    </vehicle>
    <vehicle id="31" depart="461.0">
        <route edges="w_t t_e"/>
    </vehicle>
    <vehicle id="32" depart="464.0">
        <route edges="n_t t_w"/>
    </vehicle>
    <vehicle id="33" depart="464.0">
        <route edges="s_t t_n"/>
    </vehicle>
    <vehicle id="34" depart="485.0">
        <route edges="n_t t_e e_t t_n"/>
    </vehicle>
    <vehicle id="35" depart="510.0">
        <route edges="e_t t_w"/>
    </vehicle>
    <vehicle id="36" depart="512.0">
        <route edges="e_t t_n"/>
    </vehicle>
    <vehicle id="37" depart="513.0">
        <route edges="s_t t_n"/>
    </vehicle>
    <vehicle id="38" depart="514.0">
        <route edges="w_t t_e"/>
    </vehicle>
    <vehicle id="39" depart="525.0">
        <route edges="w_t t_n n_t t_w"/>
    </vehicle>
    <vehicle id="40" depart="527.0">
        <route edges="s_t t_w"/>
    </vehicle>
    <vehicle id="41" depart="531.0">
        <route edges="n_t t_w"/>
    </vehicle>
    <vehicle id="42" depart="547.0">
        <route edges="w_t t_s"/>
    </vehicle>
    <vehicle id="43" depart="549.0">
        <route edges="n_t t_s"/>
    </vehicle>
    <vehicle id="44" depart="551.0">
        <route edges="n_t t_e"/>
    </vehicle>
    <vehicle id="45" depart="554.0">
        <route edges="s_t t_n"/>
    </vehicle>
    <vehicle id="46" depart="555.0">
        <route edges="n_t t_w"/>
    </vehicle>
    <vehicle id="47" depart="561.0">
        <route edges="e_t t_s s_t t_e"/>
    </vehicle>
    <vehicle id="48" depart="562.0">
        <route edges="e_t t_s"/>
    </vehicle>
    <vehicle id="49" depart="562.0">
        <route edges="n_t t_e e_t t_n"/>
    </vehicle>
    <vehicle id="50" depart="566.0">
        <route edges="n_t t_w"/>
    </vehicle>
    <vehicle id="51" depart="582.0">
        <route edges="n_t t_e e_t t_n"/>
    </vehicle>
    <vehicle id="52" depart="582.0">
        <route edges="w_t t_s"/>
    </vehicle>
    <vehicle id="53" depart="587.0">
        <route edges="n_t t_e e_t t_n"/>
    </vehicle>
    <vehicle id="54" depart="591.0">
        <route edges="n_t t_e"/>
    </vehicle>
    <vehicle id="55" depart="592.0">
        <route edges="n_t t_e e_t t_n"/>
    </vehicle>
    <vehicle id="56" depart="596.0">
        <route edges="w_t t_n"/>
    </vehicle>
    <vehicle id="57" depart="597.0">
        <route edges="s_t t_w"/>
    </vehicle>
    <vehicle id="58" depart="599.0">
        <route edges="w_t t_n"/>
    </vehicle>
    <vehicle id="59" depart="606.0">
        <route edges="s_t t_n"/>
    </vehicle>
    <vehicle id="60" depart="607.0">
        <route edges="n_t t_e e_t t_n"/>
    </vehicle>
    <vehicle id="61" depart="607.0">
        <route edges="w_t t_n n_t t_w"/>
    </vehicle>
    <vehicle id="62" depart="609.0">
        <route edges="n_t t_e"/>
    </vehicle>
    <vehicle id="63" depart="611.0">
        <route edges="n_t t_e"/>
    </vehicle>
    <vehicle id="64" depart="652.0">
        <route edges="e_t t_w"/>
    </vehicle>
    <vehicle id="65" depart="653.0">
        <route edges="e_t t_s"/>
    </vehicle>
    <vehicle id="66" depart="659.0">
        <route edges="n_t t_w"/>
    </vehicle>
    <vehicle id="67" depart="669.0">
        <route edges="w_t t_e"/>
    </vehicle>
    <vehicle id="68" depart="685.0">
        <route edges="e_t t_w"/>
    </vehicle>
    <vehicle id="69" depart="686.0">
        <route edges="s_t t_n"/>
    </vehicle>
    <vehicle id="70" depart="695.0">
        <route edges="w_t t_n n_t t_w"/>
    </vehicle>
    <vehicle id="71" depart="696.0">
        <route edges="n_t t_e e_t t_n"/>
    </vehicle>
    <vehicle id="72" depart="698.0">
        <route edges="e_t t_n"/>
    </vehicle>
    <vehicle id="73" depart="698.0">
        <route edges="e_t t_s"/>
    </vehicle>
    <vehicle id="74" depart="719.0">
        <route edges="s_t t_e"/>
    </vehicle>
    <vehicle id="75" depart="721.0">
        <route edges="s_t t_e"/>
    </vehicle>
    <vehicle id="76" depart="731.0">
        <route edges="e_t t_s"/>
    </vehicle>
    <vehicle id="77" depart="731.0">
        <route edges="n_t t_w"/>
    </vehicle>
    <vehicle id="78" depart="732.0">
        <route edges="s_t t_e e_t t_s"/>
    </vehicle>
    <vehicle id="79" depart="735.0">
        <route edges="e_t t_w"/>
    </vehicle>
    <vehicle id="80" depart="737.0">
        <route edges="e_t t_s"/>
    </vehicle>
    <vehicle id="81" depart="744.0">
        <route edges="w_t t_n n_t t_w"/>
    </vehicle>
    <vehicle id="82" depart="752.0">
        <route edges="w_t t_n"/>
    </vehicle>
    <vehicle id="83" depart="762.0">
        <route edges="s_t t_w"/>
    </vehicle>
    <vehicle id="84" depart="769.0">
        <route edges="e_t t_w"/>
    </vehicle>
    <vehicle id="85" depart="771.0">
        <route edges="w_t t_n"/>
    </vehicle>
    <vehicle id="86" depart="775.0">
        <route edges="w_t t_n"/>
    </vehicle>
    <vehicle id="87" depart="780.0">
        <route edges="n_t t_s"/>
    </vehicle>
    <vehicle id="88" depart="781.0">
        <route edges="e_t t_w"/>
    </vehicle>
    <vehicle id="89" depart="783.0">
        <route edges="w_t t_n"/>
    </vehicle>
    <vehicle id="90" depart="784.0">
        <route edges="w_t t_e"/>
    </vehicle>
    <vehicle id="91" depart="789.0">
        <route edges="w_t t_n"/>
    </vehicle>
    <vehicle id="92" depart="795.0">
        <route edges="w_t t_n"/>
    </vehicle>
    <vehicle id="93" depart="797.0">
        <route edges="w_t t_e"/>
    </vehicle>
    <vehicle id="94" depart="801.0">
        <route edges="e_t t_w"/>
    </vehicle>
    <vehicle id="95" depart="803.0">
        <route edges="s_t t_e e_t t_s"/>
    </vehicle>
    <vehicle id="96" depart="803.0">
        <route edges="e_t t_s s_t t_e"/>
    </vehicle>
    <vehicle id="97" depart="809.0">
        <route edges="n_t t_e"/>
    </vehicle>
    <vehicle id="98" depart="811.0">
        <route edges="w_t t_n n_t t_w"/>
    </vehicle>
    <vehicle id="99" depart="815.0">
        <route edges="w_t t_s"/>
    </vehicle>
    <vehicle id="100" depart="817.0">
        <route edges="n_t t_e"/>
    </vehicle>
    <vehicle id="101" depart="819.0">
        <route edges="s_t t_e"/>
    </vehicle>
    <vehicle id="102" depart="819.0">
        <route edges="s_t t_n"/>
    </vehicle>
    <vehicle id="103" depart="823.0">
        <route edges="n_t t_e"/>
    </vehicle>
    <vehicle id="104" depart="827.0">
        <route edges="e_t t_s"/>
    </vehicle>
    <vehicle id="105" depart="829.0">
        <route edges="e_t t_s"/>
    </vehicle>
    <vehicle id="106" depart="829.0">
        <route edges="e_t t_n"/>
    </vehicle>
    <vehicle id="107" depart="830.0">
        <route edges="e_t t_s"/>
    </vehicle>
    <vehicle id="108" depart="832.0">
        <route edges="n_t t_e"/>
    </vehicle>
    <vehicle id="109" depart="842.0">
        <route edges="e_t t_s"/>
    </vehicle>
    <vehicle id="110" depart="858.0">
        <route edges="w_t t_n"/>
    </vehicle>
    <vehicle id="111" depart="859.0">
        <route edges="e_t t_n"/>
    </vehicle>
    <vehicle id="112" depart="865.0">
        <route edges="e_t t_s"/>
    </vehicle>
    <vehicle id="113" depart="868.0">
        <route edges="w_t t_s"/>
    </vehicle>
    <vehicle id="114" depart="872.0">
        <route edges="e_t t_n"/>
    </vehicle>
    <vehicle id="115" depart="878.0">
        <route edges="n_t t_e e_t t_n"/>
    </vehicle>
    <vehicle id="116" depart="884.0">
        <route edges="n_t t_w"/>
    </vehicle>
    <vehicle id="117" depart="894.0">
        <route edges="s_t t_e e_t t_s"/>
    </vehicle>
    <vehicle id="118" depart="894.0">
        <route edges="s_t t_e e_t t_s"/>
    </vehicle>
    <vehicle id="119" depart="902.0">
        <route edges="w_t t_n"/>
    </vehicle>
    <vehicle id="120" depart="903.0">
        <route edges="s_t t_w"/>
    </vehicle>
    <vehicle id="121" depart="907.0">
        <route edges="e_t t_s"/>
    </vehicle>
    <vehicle id="122" depart="909.0">
        <route edges="n_t t_e"/>
    </vehicle>
    <vehicle id="123" depart="909.0">
        <route edges="e_t t_w"/>
    </vehicle>
    <vehicle id="124" depart="913.0">
        <route edges="e_t t_s"/>
    </vehicle>
    <vehicle id="125" depart="923.0">
        <route edges="e_t t_n"/>
    </vehicle>
    <vehicle id="126" depart="924.0">
        <route edges="e_t t_s"/>
    </vehicle>
    <vehicle id="127" depart="925.0">
        <route edges="w_t t_e"/>
    </vehicle>
    <vehicle id="128" depart="931.0">
        <route edges="s_t t_w"/>
    </vehicle>
    <vehicle id="129" depart="939.0">
        <route edges="n_t t_e e_t t_n"/>
    </vehicle>
    <vehicle id="130" depart="945.0">
        <route edges="s_t t_w"/>
    </vehicle>
    <vehicle id="131" depart="948.0">
        <route edges="e_t t_s"/>
    </vehicle>
    <vehicle id="132" depart="960.0">
        <route edges="e_t t_s s_t t_e"/>
    </vehicle>
    <vehicle id="133" depart="963.0">
        <route edges="w_t t_e"/>
    </vehicle>
    <vehicle id="134" depart="967.0">
        <route edges="w_t t_n n_t t_w"/>
    </vehicle>
    <vehicle id="135" depart="967.0">
        <route edges="s_t t_e e_t t_s"/>
    </vehicle>
    <vehicle id="136" depart="967.0">
        <route edges="s_t t_n"/>
    </vehicle>
    <vehicle id="137" depart="972.0">
        <route edges="n_t t_e"/>
    </vehicle>
    <vehicle id="138" depart="973.0">
        <route edges="w_t t_n n_t t_w"/>
    </vehicle>
    <vehicle id="139" depart="1013.0">
        <route edges="w_t t_e"/>
    </vehicle>
    <vehicle id="140" depart="1021.0">
        <route edges="s_t t_n"/>
    </vehicle>
    <vehicle id="141" depart="1022.0">
        <route edges="w_t t_s"/>
    </vehicle>
    <vehicle id="142" depart="1036.0">
        <route edges="w_t t_s"/>
    </vehicle>
    <vehicle id="143" depart="1042.0">
        <route edges="s_t t_w"/>
    </vehicle>
    <vehicle id="144" depart="1047.0">
        <route edges="e_t t_s"/>
    </vehicle>
    <vehicle id="145" depart="1052.0">
        <route edges="e_t t_n"/>
    </vehicle>
    <vehicle id="146" depart="1058.0">
        <route edges="e_t t_w"/>
    </vehicle>
    <vehicle id="147" depart="1066.0">
        <route edges="e_t t_w"/>
    </vehicle>
    <vehicle id="148" depart="1082.0">
        <route edges="w_t t_n"/>
    </vehicle>
    <vehicle id="149" depart="1085.0">
        <route edges="w_t t_e"/>
    </vehicle>
    <vehicle id="150" depart="1091.0">
        <route edges="e_t t_s s_t t_e"/>
    </vehicle>
    <vehicle id="151" depart="1092.0">
        <route edges="e_t t_s s_t t_e"/>
    </vehicle>
    <vehicle id="152" depart="1092.0">
        <route edges="w_t t_e"/>
    </vehicle>
    <vehicle id="153" depart="1095.0">
        <route edges="s_t t_n"/>
    </vehicle>
    <vehicle id="154" depart="1095.0">
        <route edges="e_t t_n"/>
    </vehicle>
    <vehicle id="155" depart="1101.0">
        <route edges="e_t t_w"/>
    </vehicle>
    <vehicle id="156" depart="1107.0">
        <route edges="n_t t_s"/>
    </vehicle>
    <vehicle id="157" depart="1114.0">
        <route edges="s_t t_e e_t t_s"/>
    </vehicle>
    <vehicle id="158" depart="1124.0">
        <route edges="n_t t_e e_t t_n"/>
    </vehicle>
    <vehicle id="159" depart="1126.0">
        <route edges="e_t t_w"/>
    </vehicle>
    <vehicle id="160" depart="1130.0">
        <route edges="e_t t_n"/>
    </vehicle>
    <vehicle id="161" depart="1131.0">
        <route edges="w_t t_s"/>
    </vehicle>
    <vehicle id="162" depart="1134.0">
        <route edges="w_t t_n n_t t_w"/>
    </vehicle>
    <vehicle id="163" depart="1137.0">
        <route edges="s_t t_e"/>
    </vehicle>
    <vehicle id="164" depart="1139.0">
        <route edges="s_t t_n"/>
    </vehicle>
    <vehicle id="165" depart="1140.0">
        <route edges="w_t t_s"/>
    </vehicle>
    <vehicle id="166" depart="1146.0">
        <route edges="s_t t_w"/>
    </vehicle>
    <vehicle id="167" depart="1151.0">
        <route edges="n_t t_w"/>
    </vehicle>
    <vehicle id="168" depart="1156.0">
        <route edges="w_t t_e"/>
    </vehicle>
    <vehicle id="169" depart="1156.0">
        <route edges="w_t t_n n_t t_w"/>
    </vehicle>
    <vehicle id="170" depart="1157.0">
        <route edges="w_t t_n"/>
    </vehicle>
    <vehicle id="171" depart="1161.0">
        <route edges="n_t t_e"/>
    </vehicle>
    <vehicle id="172" depart="1161.0">
        <route edges="n_t t_w"/>
    </vehicle>
    <vehicle id="173" depart="1164.0">
        <route edges="n_t t_e"/>
    </vehicle>
    <vehicle id="174" depart="1168.0">
        <route edges="n_t t_e"/>
    </vehicle>
    <vehicle id="175" depart="1172.0">
        <route edges="s_t t_w"/>
    </vehicle>
    <vehicle id="176" depart="1172.0">
        <route edges="w_t t_e"/>
    </vehicle>
    <vehicle id="177" depart="1176.0">
        <route edges="n_t t_e"/>
    </vehicle>
    <vehicle id="178" depart="1180.0">
        <route edges="w_t t_n n_t t_w"/>
    </vehicle>
    <vehicle id="179" depart="1184.0">
        <route edges="s_t t_w"/>
    </vehicle>
    <vehicle id="180" depart="1187.0">
        <route edges="s_t t_w"/>
    </vehicle>
    <vehicle id="181" depart="1202.0">
        <route edges="n_t t_e e_t t_n"/>
    </vehicle>
    <vehicle id="182" depart="1204.0">
        <route edges="w_t t_n n_t t_w"/>
    </vehicle>
    <vehicle id="183" depart="1205.0">
        <route edges="s_t t_w"/>
    </vehicle>
    <vehicle id="184" depart="1206.0">
        <route edges="s_t t_w"/>
    </vehicle>
    <vehicle id="185" depart="1209.0">
        <route edges="e_t t_s s_t t_e"/>
    </vehicle>
    <vehicle id="186" depart="1220.0">
        <route edges="e_t t_s"/>
    </vehicle>
    <vehicle id="187" depart="1221.0">
        <route edges="s_t t_e"/>
    </vehicle>
    <vehicle id="188" depart="1224.0">
        <route edges="s_t t_e"/>
    </vehicle>
    <vehicle id="189" depart="1226.0">
        <route edges="s_t t_w"/>
    </vehicle>
    <vehicle id="190" depart="1226.0">
        <route edges="e_t t_w"/>
    </vehicle>
    <vehicle id="191" depart="1228.0">
        <route edges="s_t t_e"/>
    </vehicle>
    <vehicle id="192" depart="1229.0">
        <route edges="n_t t_e"/>
    </vehicle>
    <vehicle id="193" depart="1231.0">
        <route edges="s_t t_w"/>
    </vehicle>
    <vehicle id="194" depart="1233.0">
        <route edges="e_t t_s s_t t_e"/>
    </vehicle>
    <vehicle id="195" depart="1239.0">
        <route edges="s_t t_w"/>
    </vehicle>
    <vehicle id="196" depart="1247.0">
        <route edges="s_t t_n"/>
    </vehicle>
    <vehicle id="197" depart="1256.0">
        <route edges="e_t t_s"/>
    </vehicle>
    <vehicle id="198" depart="1258.0">
        <route edges="n_t t_w"/>
    </vehicle>
    <vehicle id="199" depart="1262.0">
        <route edges="s_t t_e e_t t_s"/>
    </vehicle>
    <vehicle id="200" depart="1263.0">
        <route edges="w_t t_s"/>
    </vehicle>
    <vehicle id="201" depart="1270.0">
        <route edges="w_t t_n"/>
    </vehicle>
    <vehicle id="202" depart="1275.0">
        <route edges="e_t t_w"/>
    </vehicle>
    <vehicle id="203" depart="1278.0">
        <route edges="e_t t_w"/>
    </vehicle>
    <vehicle id="204" depart="1286.0">
        <route edges="n_t t_e"/>
    </vehicle>
    <vehicle id="205" depart="1288.0">
        <route edges="n_t t_s"/>
    </vehicle>
    <vehicle id="206" depart="1290.0">
        <route edges="n_t t_s"/>
    </vehicle>
    <vehicle id="207" depart="1292.0">
        <route edges="e_t t_w"/>
    </vehicle>
    <vehicle id="208" depart="1303.0">
        <route edges="n_t t_w"/>
    </vehicle>
    <vehicle id="209" depart="1303.0">
        <route edges="e_t t_s"/>
    </vehicle>
    <vehicle id="210" depart="1305.0">
        <route edges="n_t t_e e_t t_n"/>
    </vehicle>
    <vehicle id="211" depart="1305.0">
        <route edges="e_t t_s"/>
    </vehicle>
    <vehicle id="212" depart="1312.0">
        <route edges="w_t t_e"/>
    </vehicle>
    <vehicle id="213" depart="1319.0">
        <route edges="n_t t_e"/>
    </vehicle>
    <vehicle id="214" depart="1319.0">
        <route edges="w_t t_n n_t t_w"/>
    </vehicle>
    <vehicle id="215" depart="1320.0">
        <route edges="s_t t_n"/>
    </vehicle>
    <vehicle id="216" depart="1322.0">
        <route edges="e_t t_s s_t t_e"/>
    </vehicle>
    <vehicle id="217" depart="1329.0">
        <route edges="s_t t_w"/>
    </vehicle>
    <vehicle id="218" depart="1330.0">
        <route edges="w_t t_n n_t t_w"/>
    </vehicle>
    <vehicle id="219" depart="1335.0">
        <route edges="n_t t_e e_t t_n"/>
    </vehicle>
    <vehicle id="220" depart="1337.0">
        <route edges="s_t t_n"/>
    </vehicle>
    <vehicle id="221" depart="1338.0">
        <route edges="s_t t_w"/>
    </vehicle>
    <vehicle id="222" depart="1338.0">
        <route edges="n_t t_w"/>
    </vehicle>
    <vehicle id="223" depart="1340.0">
        <route edges="s_t t_e"/>
    </vehicle>
    <vehicle id="224" depart="1344.0">
        <route edges="s_t t_e e_t t_s"/>
    </vehicle>
    <vehicle id="225" depart="1345.0">
        <route edges="s_t t_e"/>
    </vehicle>
    <vehicle id="226" depart="1346.0">
        <route edges="w_t t_n"/>
    </vehicle>
    <vehicle id="227" depart="1361.0">
        <route edges="s_t t_e"/>
    </vehicle>
    <vehicle id="228" depart="1364.0">
        <route edges="e_t t_s s_t t_e"/>
    </vehicle>
    <vehicle id="229" depart="1366.0">
        <route edges="e_t t_n"/>
    </vehicle>
    <vehicle id="230" depart="1373.0">
        <route edges="e_t t_s s_t t_e"/>
    </vehicle>
    <vehicle id="231" depart="1379.0">
        <route edges="s_t t_e e_t t_s"/>
    </vehicle>
    <vehicle id="232" depart="1391.0">
        <route edges="w_t t_e"/>
    </vehicle>
    <vehicle id="233" depart="1391.0">
        <route edges="s_t t_e e_t t_s"/>
    </vehicle>
    <vehicle id="234" depart="1400.0">
        <route edges="e_t t_w"/>
    </vehicle>
    <vehicle id="235" depart="1401.0">
        <route edges="n_t t_e"/>
    </vehicle>
    <vehicle id="236" depart="1414.0">
        <route edges="e_t t_w"/>
    </vehicle>
    <vehicle id="237" depart="1415.0">
        <route edges="e_t t_n"/>
    </vehicle>
    <vehicle id="238" depart="1415.0">
        <route edges="s_t t_n"/>
    </vehicle>
    <vehicle id="239" depart="1416.0">
        <route edges="s_t t_e"/>
    </vehicle>
    <vehicle id="240" depart="1417.0">
        <route edges="n_t t_s"/>
    </vehicle>
    <vehicle id="241" depart="1420.0">
        <route edges="s_t t_e e_t t_s"/>
    </vehicle>
    <vehicle id="242" depart="1421.0">
        <route edges="n_t t_s"/>
    </vehicle>
    <vehicle id="243" depart="1423.0">
        <route edges="w_t t_n"/>
    </vehicle>
    <vehicle id="244" depart="1423.0">
        <route edges="s_t t_w"/>
    </vehicle>
    <vehicle id="245" depart="1426.0">
        <route edges="n_t t_e e_t t_n"/>
    </vehicle>
    <vehicle id="246" depart="1429.0">
        <route edges="w_t t_n"/>
    </vehicle>
    <vehicle id="247" depart="1432.0">
        <route edges="n_t t_e e_t t_n"/>
    </vehicle>
    <vehicle id="248" depart="1443.0">
        <route edges="w_t t_s"/>
    </vehicle>
    <vehicle id="249" depart="1444.0">
        <route edges="w_t t_e"/>
    </vehicle>
    <vehicle id="250" depart="1445.0">
        <route edges="n_t t_s"/>
    </vehicle>
    <vehicle id="251" depart="1447.0">
        <route edges="n_t t_s"/>
    </vehicle>
    <vehicle id="252" depart="1448.0">
        <route edges="s_t t_e"/>
    </vehicle>
    <vehicle id="253" depart="1450.0">
        <route edges="e_t t_n"/>
    </vehicle>
    <vehicle id="254" depart="1455.0">
        <route edges="s_t t_e"/>
    </vehicle>
    <vehicle id="255" depart="1459.0">
        <route edges="n_t t_e"/>
    </vehicle>
    <vehicle id="256" depart="1464.0">
        <route edges="n_t t_e e_t t_n"/>
    </vehicle>
    <vehicle id="257" depart="1468.0">
        <route edges="n_t t_s"/>
    </vehicle>
    <vehicle id="258" depart="1471.0">
        <route edges="w_t t_s"/>
    </vehicle>
    <vehicle id="259" depart="1474.0">
        <route edges="s_t t_n"/>
    </vehicle>
    <vehicle id="260" depart="1482.0">
        <route edges="n_t t_s"/>
    </vehicle>
    <vehicle id="261" depart="1486.0">
        <route edges="w_t t_e"/>
    </vehicle>
    <vehicle id="262" depart="1497.0">
        <route edges="e_t t_s s_t t_e"/>
    </vehicle>
    <vehicle id="263" depart="1502.0">
        <route edges="s_t t_w"/>
    </vehicle>
    <vehicle id="264" depart="1506.0">
        <route edges="e_t t_w"/>
    </vehicle>
    <vehicle id="265" depart="1515.0">
        <route edges="s_t t_w"/>
    </vehicle>
    <vehicle id="266" depart="1519.0">
        <route edges="w_t t_e"/>
    </vehicle>
    <vehicle id="267" depart="1523.0">
        <route edges="w_t t_e"/>
    </vehicle>
    <vehicle id="268" depart="1534.0">
        <route edges="e_t t_n"/>
    </vehicle>
    <vehicle id="269" depart="1535.0">
        <route edges="n_t t_e"/>
    </vehicle>
    <vehicle id="270" depart="1538.0">
        <route edges="n_t t_e"/>
    </vehicle>
    <vehicle id="271" depart="1554.0">
        <route edges="e_t t_s s_t t_e"/>
    </vehicle>
    <vehicle id="272" depart="1555.0">
        <route edges="e_t t_s s_t t_e"/>
    </vehicle>
    <vehicle id="273" depart="1557.0">
        <route edges="n_t t_e e_t t_n"/>
    </vehicle>
    <vehicle id="274" depart="1569.0">
        <route edges="s_t t_e e_t t_s"/>
    </vehicle>
    <vehicle id="275" depart="1574.0">
        <route edges="n_t t_e e_t t_n"/>
    </vehicle>
    <vehicle id="276" depart="1583.0">
        <route edges="s_t t_e"/>
    </vehicle>
    <vehicle id="277" depart="1589.0">
        <route edges="e_t t_s s_t t_e"/>
    </vehicle>
    <vehicle id="278" depart="1592.0">
        <route edges="s_t t_e"/>
    </vehicle>
    <vehicle id="279" depart="1599.0">
        <route edges="e_t t_n"/>
    </vehicle>
    <vehicle id="280" depart="1601.0">
        <route edges="s_t t_e e_t t_s"/>
    </vehicle>
    <vehicle id="281" depart="1607.0">
        <route edges="s_t t_e e_t t_s"/>
    </vehicle>
    <vehicle id="282" depart="1609.0">
        <route edges="e_t t_w"/>
    </vehicle>
    <vehicle id="283" depart="1614.0">
        <route edges="s_t t_n"/>
    </vehicle>
    <vehicle id="284" depart="1616.0">
        <route edges="n_t t_s"/>
    </vehicle>
    <vehicle id="285" depart="1625.0">
        <route edges="e_t t_s"/>
    </vehicle>
    <vehicle id="286" depart="1627.0">
        <route edges="w_t t_n"/>
    </vehicle>
    <vehicle id="287" depart="1631.0">
        <route edges="n_t t_e e_t t_n"/>
    </vehicle>
    <vehicle id="288" depart="1638.0">
        <route edges="w_t t_n"/>
    </vehicle>
    <vehicle id="289" depart="1641.0">
        <route edges="n_t t_s"/>
    </vehicle>
    <vehicle id="290" depart="1644.0">
        <route edges="n_t t_w"/>
    </vehicle>
    <vehicle id="291" depart="1661.0">
        <route edges="n_t t_s"/>
    </vehicle>
    <vehicle id="292" depart="1670.0">
        <route edges="n_t t_s"/>
    </vehicle>
    <vehicle id="293" depart="1670.0">
        <route edges="n_t t_e"/>
    </vehicle>
    <vehicle id="294" depart="1676.0">
        <route edges="w_t t_e"/>
    </vehicle>
    <vehicle id="295" depart="1679.0">
        <route edges="s_t t_e e_t t_s"/>
    </vehicle>
    <vehicle id="296" depart="1685.0">
        <route edges="n_t t_e e_t t_n"/>
    </vehicle>
    <vehicle id="297" depart="1688.0">
        <route edges="n_t t_w"/>
    </vehicle>
    <vehicle id="298" depart="1697.0">
        <route edges="e_t t_w"/>
    </vehicle>
    <vehicle id="299" depart="1698.0">
        <route edges="s_t t_n"/>
    </vehicle>
    <vehicle id="300" depart="1710.0">
        <route edges="s_t t_e e_t t_s"/>
    </vehicle>
    <vehicle id="301" depart="1712.0">
        <route edges="w_t t_n n_t t_w"/>
    </vehicle>
    <vehicle id="302" depart="1723.0">
        <route edges="s_t t_n"/>
    </vehicle>
    <vehicle id="303" depart="1736.0">
        <route edges="n_t t_w"/>
    </vehicle>
    <vehicle id="304" depart="1740.0">
        <route edges="n_t t_e"/>
    </vehicle>
    <vehicle id="305" depart="1743.0">
        <route edges="s_t t_e"/>
    </vehicle>
    <vehicle id="306" depart="1744.0">
        <route edges="n_t t_s"/>
    </vehicle>
    <vehicle id="307" depart="1755.0">
        <route edges="s_t t_e e_t t_s"/>
    </vehicle>
    <vehicle id="308" depart="1758.0">
        <route edges="w_t t_s"/>
    </vehicle>
    <vehicle id="309" depart="1759.0">
        <route edges="w_t t_n n_t t_w"/>
    </vehicle>
    <vehicle id="310" depart="1765.0">
        <route edges="n_t t_w"/>
    </vehicle>
    <vehicle id="311" depart="1769.0">
        <route edges="n_t t_w"/>
    </vehicle>
    <vehicle id="312" depart="1770.0">
        <route edges="s_t t_n"/>
    </vehicle>
    <vehicle id="313" depart="1772.0">
        <route edges="e_t t_w"/>
    </vehicle>
    <vehicle id="314" depart="1777.0">
        <route edges="n_t t_e"/>
    </vehicle>
    <vehicle id="315" depart="1782.0">
        <route edges="w_t t_e"/>
    </vehicle>
    <vehicle id="316" depart="1782.0">
        <route edges="e_t t_s s_t t_e"/>
    </vehicle>
    <vehicle id="317" depart="1786.0">
        <route edges="s_t t_e e_t t_s"/>
    </vehicle>
    <vehicle id="318" depart="1794.0">
        <route edges="n_t t_w"/>
    </vehicle>
    <vehicle id="319" depart="1798.0">
        <route edges="n_t t_e"/>
    </vehicle>
    <vehicle id="320" depart="1806.0">
        <route edges="w_t t_e"/>
    </vehicle>
    <vehicle id="321" depart="1810.0">
        <route edges="e_t t_s s_t t_e"/>
    </vehicle>
    <vehicle id="322" depart="1814.0">
        <route edges="w_t t_n"/>
    </vehicle>
    <vehicle id="323" depart="1819.0">
        <route edges="n_t t_e e_t t_n"/>
    </vehicle>
    <vehicle id="324" depart="1820.0">
        <route edges="n_t t_w"/>
    </vehicle>
    <vehicle id="325" depart="1822.0">
        <route edges="s_t t_n"/>