<?xml version="1.0" encoding="UTF-8"?>

<!-- generated on 2023-06-30 22:45:35.454409 by randomTrips.py UNKNOWN
<configuration>
    <net-file value="nets/2way-single-intersection/single-intersection.net.xml"/>
    <route-file value="training/routes/2x2_tr_ep16.rou.xml"/>
    <seed value="16"/>
    <validate value="True"/>
    <end value="500.0"/>
</configuration>
-->

<!-- generated on 2023-06-30 22:45:35 by Eclipse SUMO duarouter Version v1_17_0+1256-16eabe86c67
<configuration xmlns:xsi="http://www.w3.org/2001/XMLSchema-instance" xsi:noNamespaceSchemaLocation="http://sumo.dlr.de/xsd/duarouterConfiguration.xsd">

    <input>
        <net-file value="nets/2way-single-intersection/single-intersection.net.xml"/>
        <route-files value="trips.trips.xml"/>
    </input>

    <output>
        <output-file value="training/routes/2x2_tr_ep16.rou.xml"/>
        <alternatives-output value="NUL"/>
    </output>

    <time>
        <begin value="0"/>
        <end value="500.0"/>
    </time>

    <report>
        <no-warnings value="true"/>
        <ignore-errors value="true"/>
        <no-step-log value="true"/>
    </report>

</configuration>
-->

<routes xmlns:xsi="http://www.w3.org/2001/XMLSchema-instance" xsi:noNamespaceSchemaLocation="http://sumo.dlr.de/xsd/routes_file.xsd">
    <vehicle id="0" depart="18.0">
        <route edges="n_t t_e e_t t_n"/>
    </vehicle>
    <vehicle id="1" depart="43.0">
        <route edges="n_t t_e e_t t_n"/>
    </vehicle>
    <vehicle id="2" depart="54.0">
        <route edges="n_t t_s"/>
    </vehicle>
    <vehicle id="3" depart="79.0">
        <route edges="n_t t_s"/>
    </vehicle>
    <vehicle id="4" depart="133.0">
        <route edges="e_t t_n"/>
    </vehicle>
    <vehicle id="5" depart="136.0">
        <route edges="n_t t_e"/>
    </vehicle>
    <vehicle id="6" depart="145.0">
        <route edges="s_t t_n"/>
    </vehicle>
    <vehicle id="7" depart="147.0">
        <route edges="w_t t_n n_t t_w"/>
    </vehicle>
    <vehicle id="8" depart="169.0">
        <route edges="n_t t_w"/>
    </vehicle>
    <vehicle id="9" depart="169.0">
        <route edges="w_t t_s"/>
    </vehicle>
    <vehicle id="10" depart="185.0">
        <route edges="e_t t_n"/>
    </vehicle>
    <vehicle id="11" depart="189.0">
        <route edges="s_t t_n"/>
    </vehicle>
    <vehicle id="12" depart="192.0">
        <route edges="e_t t_n"/>
    </vehicle>
    <vehicle id="13" depart="195.0">
        <route edges="n_t t_w"/>
    </vehicle>
    <vehicle id="14" depart="201.0">
        <route edges="n_t t_e e_t t_n"/>
    </vehicle>
    <vehicle id="15" depart="206.0">
        <route edges="s_t t_w"/>
    </vehicle>
    <vehicle id="16" depart="206.0">
        <route edges="n_t t_e"/>
    </vehicle>
    <vehicle id="17" depart="215.0">
        <route edges="w_t t_n n_t t_w"/>
    </vehicle>
    <vehicle id="18" depart="216.0">
        <route edges="w_t t_s"/>
    </vehicle>
    <vehicle id="19" depart="236.0">
        <route edges="e_t t_s s_t t_e"/>
    </vehicle>
    <vehicle id="20" depart="250.0">
        <route edges="n_t t_e e_t t_n"/>
    </vehicle>
    <vehicle id="21" depart="253.0">
        <route edges="e_t t_s"/>
    </vehicle>
    <vehicle id="22" depart="254.0">
        <route edges="s_t t_e"/>
    </vehicle>
    <vehicle id="23" depart="255.0">
        <route edges="w_t t_n"/>
    </vehicle>
    <vehicle id="24" depart="257.0">
        <route edges="w_t t_n"/>
    </vehicle>
    <vehicle id="25" depart="266.0">
        <route edges="w_t t_n"/>
    </vehicle>
    <vehicle id="26" depart="271.0">
        <route edges="s_t t_n"/>
    </vehicle>
    <vehicle id="27" depart="272.0">
        <route edges="e_t t_s s_t t_e"/>
    </vehicle>
    <vehicle id="28" depart="292.0">
        <route edges="e_t t_n"/>
    </vehicle>
    <vehicle id="29" depart="304.0">
        <route edges="n_t t_s"/>
    </vehicle>
    <vehicle id="30" depart="314.0">
        <route edges="s_t t_n"/>
    </vehicle>
    <vehicle id="31" depart="319.0">
        <route edges="n_t t_s"/>
    </vehicle>
    <vehicle id="32" depart="331.0">
        <route edges="w_t t_n n_t t_w"/>
    </vehicle>
    <vehicle id="33" depart="332.0">
        <route edges="s_t t_w"/>
    </vehicle>
    <vehicle id="34" depart="335.0">
        <route edges="e_t t_s s_t t_e"/>
    </vehicle>
    <vehicle id="35" depart="339.0">
        <route edges="e_t t_s s_t t_e"/>
    </vehicle>
    <vehicle id="36" depart="341.0">
        <route edges="e_t t_s"/>
    </vehicle>
    <vehicle id="37" depart="349.0">
        <route edges="w_t t_e"/>
    </vehicle>
    <vehicle id="38" depart="351.0">
        <route edges="s_t t_w"/>
    </vehicle>
    <vehicle id="39" depart="351.0">
        <route edges="w_t t_e"/>
    </vehicle>
    <vehicle id="40" depart="366.0">
        <route edges="s_t t_n"/>
    </vehicle>
    <vehicle id="41" depart="366.0">
        <route edges="e_t t_s s_t t_e"/>
    </vehicle>
    <vehicle id="42" depart="373.0">
        <route edges="s_t t_w"/>
    </vehicle>
    <vehicle id="43" depart="374.0">
        <route edges="e_t t_s s_t t_e"/>
    </vehicle>
    <vehicle id="44" depart="376.0">
        <route edges="n_t t_e"/>
    </vehicle>
    <vehicle id="45" depart="377.0">
        <route edges="n_t t_s"/>
    </vehicle>
    <vehicle id="46" depart="388.0">
        <route edges="n_t t_e"/>
    </vehicle>
    <vehicle id="47" depart="393.0">
        <route edges="e_t t_s s_t t_e"/>
    </vehicle>
    <vehicle id="48" depart="395.0">
        <route edges="s_t t_w"/>
    </vehicle>
    <vehicle id="49" depart="401.0">
        <route edges="s_t t_e"/>
    </vehicle>
    <vehicle id="50" depart="408.0">
        <route edges="e_t t_n"/>
    </vehicle>
    <vehicle id="51" depart="411.0">
        <route edges="e_t t_s s_t t_e"/>
    </vehicle>
    <vehicle id="52" depart="421.0">
        <route edges="n_t t_w"/>
    </vehicle>
    <vehicle id="53" depart="424.0">
        <route edges="e_t t_w"/>
    </vehicle>
    <vehicle id="54" depart="425.0">
        <route edges="w_t t_n"/>
    </vehicle>
    <vehicle id="55" depart="429.0">
        <route edges="e_t t_s s_t t_e"/>
    </vehicle>
    <vehicle id="56" depart="437.0">
        <route edges="s_t t_w"/>
    </vehicle>
    <vehicle id="57" depart="439.0">
        <route edges="w_t t_e"/>
    </vehicle>
    <vehicle id="58" depart="470.0">
        <route edges="n_t t_e"/>
    </vehicle>
    <vehicle id="59" depart="473.0">
        <route edges="n_t t_e e_t t_n"/>
    </vehicle>
    <vehicle id="60" depart="475.0">
        <route edges="e_t t_s s_t t_e"/>
    </vehicle>
    <vehicle id="61" depart="479.0">
        <route edges="w_t t_n"/>
    </vehicle>
    <vehicle id="62" depart="486.0">
        <route edges="n_t t_s"/>
    </vehicle>
    <vehicle id="63" depart="486.0">
        <route edges="n_t t_s"/>
    </vehicle>
    <vehicle id="64" depart="501.0">
        <route edges="s_t t_n"/>
    </vehicle>
    <vehicle id="65" depart="506.0">
        <route edges="e_t t_s"/>
    </vehicle>
    <vehicle id="66" depart="507.0">
        <route edges="s_t t_e e_t t_s"/>
    </vehicle>
    <vehicle id="67" depart="508.0">
        <route edges="n_t t_e e_t t_n"/>
    </vehicle>
    <vehicle id="68" depart="510.0">
        <route edges="w_t t_s"/>
    </vehicle>
    <vehicle id="69" depart="518.0">
        <route edges="e_t t_n"/>
    </vehicle>
    <vehicle id="70" depart="519.0">
        <route edges="e_t t_s"/>
    </vehicle>
    <vehicle id="71" depart="527.0">
        <route edges="n_t t_e e_t t_n"/>
    </vehicle>
    <vehicle id="72" depart="530.0">
        <route edges="e_t t_n"/>
    </vehicle>
    <vehicle id="73" depart="543.0">
        <route edges="s_t t_e e_t t_s"/>
    </vehicle>
    <vehicle id="74" depart="558.0">
        <route edges="e_t t_n"/>
    </vehicle>
    <vehicle id="75" depart="562.0">
        <route edges="s_t t_e"/>
    </vehicle>
    <vehicle id="76" depart="563.0">
        <route edges="w_t t_e"/>
    </vehicle>
    <vehicle id="77" depart="564.0">
        <route edges="s_t t_e"/>
    </vehicle>
    <vehicle id="78" depart="570.0">
        <route edges="w_t t_s"/>
    </vehicle>
    <vehicle id="79" depart="572.0">
        <route edges="e_t t_s"/>
    </vehicle>
    <vehicle id="80" depart="576.0">
        <route edges="w_t t_n n_t t_w"/>
    </vehicle>
    <vehicle id="81" depart="582.0">
        <route edges="s_t t_e e_t t_s"/>
    </vehicle>
    <vehicle id="82" depart="586.0">
        <route edges="s_t t_w"/>
    </vehicle>
    <vehicle id="83" depart="591.0">
        <route edges="s_t t_e e_t t_s"/>
    </vehicle>
    <vehicle id="84" depart="596.0">
        <route edges="w_t t_s"/>
    </vehicle>
    <vehicle id="85" depart="602.0">
        <route edges="e_t t_s"/>
    </vehicle>
    <vehicle id="86" depart="613.0">
        <route edges="n_t t_s"/>
    </vehicle>
    <vehicle id="87" depart="613.0">
        <route edges="s_t t_w"/>
    </vehicle>
    <vehicle id="88" depart="622.0">
        <route edges="e_t t_s s_t t_e"/>
    </vehicle>
    <vehicle id="89" depart="625.0">
        <route edges="w_t t_s"/>
    </vehicle>
    <vehicle id="90" depart="626.0">
        <route edges="w_t t_n n_t t_w"/>
    </vehicle>
    <vehicle id="91" depart="628.0">
        <route edges="w_t t_e"/>
    </vehicle>
    <vehicle id="92" depart="637.0">
        <route edges="e_t t_s"/>
    </vehicle>
    <vehicle id="93" depart="648.0">
        <route edges="w_t t_e"/>
    </vehicle>
    <vehicle id="94" depart="649.0">
        <route edges="w_t t_e"/>
    </vehicle>
    <vehicle id="95" depart="660.0">
        <route edges="e_t t_n"/>
    </vehicle>
    <vehicle id="96" depart="662.0">
        <route edges="e_t t_s s_t t_e"/>
    </vehicle>
    <vehicle id="97" depart="664.0">
        <route edges="e_t t_s s_t t_e"/>
    </vehicle>
    <vehicle id="98" depart="665.0">
        <route edges="e_t t_s"/>
    </vehicle>
    <vehicle id="99" depart="669.0">
        <route edges="w_t t_n n_t t_w"/>
    </vehicle>
    <vehicle id="100" depart="671.0">
        <route edges="n_t t_w"/>
    </vehicle>
    <vehicle id="101" depart="671.0">
        <route edges="e_t t_w"/>
    </vehicle>
    <vehicle id="102" depart="671.0">
        <route edges="n_t t_e"/>
    </vehicle>
    <vehicle id="103" depart="677.0">
        <route edges="n_t t_e"/>
    </vehicle>
    <vehicle id="104" depart="681.0">
        <route edges="s_t t_n"/>
    </vehicle>
    <vehicle id="105" depart="684.0">
        <route edges="e_t t_s s_t t_e"/>
    </vehicle>
    <vehicle id="106" depart="684.0">
        <route edges="e_t t_w"/>
    </vehicle>
    <vehicle id="107" depart="684.0">
        <route edges="n_t t_w"/>
    </vehicle>
    <vehicle id="108" depart="684.0">
        <route edges="s_t t_n"/>
    </vehicle>
    <vehicle id="109" depart="686.0">
        <route edges="s_t t_e e_t t_s"/>
    </vehicle>
    <vehicle id="110" depart="686.0">
        <route edges="e_t t_w"/>
    </vehicle>
    <vehicle id="111" depart="688.0">
        <route edges="n_t t_s"/>
    </vehicle>
    <vehicle id="112" depart="691.0">
        <route edges="n_t t_w"/>
    </vehicle>
    <vehicle id="113" depart="692.0">
        <route edges="e_t t_s s_t t_e"/>
    </vehicle>
    <vehicle id="114" depart="695.0">
        <route edges="e_t t_n"/>
    </vehicle>
    <vehicle id="115" depart="696.0">
        <route edges="w_t t_n"/>
    </vehicle>
    <vehicle id="116" depart="699.0">
        <route edges="w_t t_e"/>
    </vehicle>
    <vehicle id="117" depart="702.0">
        <route edges="w_t t_e"/>
    </vehicle>
    <vehicle id="118" depart="703.0">
        <route edges="w_t t_e"/>
    </vehicle>
    <vehicle id="119" depart="703.0">
        <route edges="s_t t_e e_t t_s"/>
    </vehicle>
    <vehicle id="120" depart="706.0">
        <route edges="w_t t_n"/>
    </vehicle>
    <vehicle id="121" depart="711.0">
        <route edges="w_t t_e"/>
    </vehicle>
    <vehicle id="122" depart="712.0">
        <route edges="w_t t_s"/>
    </vehicle>
    <vehicle id="123" depart="712.0">
        <route edges="s_t t_w"/>
    </vehicle>
    <vehicle id="124" depart="714.0">
        <route edges="n_t t_s"/>
    </vehicle>
    <vehicle id="125" depart="717.0">
        <route edges="s_t t_n"/>
    </vehicle>
    <vehicle id="126" depart="718.0">
        <route edges="e_t t_n"/>
    </vehicle>
    <vehicle id="127" depart="719.0">
        <route edges="n_t t_s"/>
    </vehicle>
    <vehicle id="128" depart="719.0">
        <route edges="n_t t_e"/>
    </vehicle>
    <vehicle id="129" depart="726.0">
        <route edges="s_t t_w"/>
    </vehicle>
    <vehicle id="130" depart="729.0">
        <route edges="s_t t_n"/>
    </vehicle>
    <vehicle id="131" depart="733.0">
        <route edges="n_t t_w"/>
    </vehicle>
    <vehicle id="132" depart="736.0">
        <route edges="n_t t_s"/>
    </vehicle>
    <vehicle id="133" depart="740.0">
        <route edges="e_t t_w"/>
    </vehicle>
    <vehicle id="134" depart="747.0">
        <route edges="w_t t_n"/>
    </vehicle>
    <vehicle id="135" depart="750.0">
        <route edges="n_t t_s"/>
    </vehicle>
    <vehicle id="136" depart="763.0">
        <route edges="w_t t_n n_t t_w"/>
    </vehicle>
    <vehicle id="137" depart="766.0">
        <route edges="e_t t_s s_t t_e"/>
    </vehicle>
    <vehicle id="138" depart="767.0">
        <route edges="w_t t_n"/>
    </vehicle>
    <vehicle id="139" depart="770.0">
        <route edges="w_t t_n"/>
    </vehicle>
    <vehicle id="140" depart="776.0">
        <route edges="w_t t_e"/>
    </vehicle>
    <vehicle id="141" depart="779.0">
        <route edges="w_t t_n"/>
    </vehicle>
    <vehicle id="142" depart="785.0">
        <route edges="e_t t_s s_t t_e"/>
    </vehicle>
    <vehicle id="143" depart="797.0">
        <route edges="e_t t_n"/>
    </vehicle>
    <vehicle id="144" depart="798.0">
        <route edges="w_t t_n n_t t_w"/>
    </vehicle>
    <vehicle id="145" depart="798.0">
        <route edges="w_t t_n"/>
    </vehicle>
    <vehicle id="146" depart="803.0">
        <route edges="w_t t_s"/>
    </vehicle>
    <vehicle id="147" depart="803.0">
        <route edges="w_t t_n n_t t_w"/>
    </vehicle>
    <vehicle id="148" depart="806.0">
        <route edges="w_t t_n n_t t_w"/>
    </vehicle>
    <vehicle id="149" depart="807.0">
        <route edges="n_t t_e"/>
    </vehicle>
    <vehicle id="150" depart="807.0">
        <route edges="n_t t_e e_t t_n"/>
    </vehicle>
    <vehicle id="151" depart="810.0">
        <route edges="w_t t_e"/>
    </vehicle>
    <vehicle id="152" depart="810.0">
        <route edges="e_t t_s"/>
    </vehicle>
    <vehicle id="153" depart="815.0">
        <route edges="e_t t_s s_t t_e"/>
    </vehicle>
    <vehicle id="154" depart="817.0">
        <route edges="e_t t_s s_t t_e"/>
    </vehicle>
    <vehicle id="155" depart="828.0">
        <route edges="e_t t_s"/>
    </vehicle>
    <vehicle id="156" depart="829.0">
        <route edges="n_t t_e"/>
    </vehicle>
    <vehicle id="157" depart="832.0">
        <route edges="n_t t_e e_t t_n"/>
    </vehicle>
    <vehicle id="158" depart="834.0">
        <route edges="e_t t_s s_t t_e"/>
    </vehicle>
    <vehicle id="159" depart="835.0">
        <route edges="n_t t_e e_t t_n"/>
    </vehicle>
    <vehicle id="160" depart="835.0">
        <route edges="e_t t_n"/>
    </vehicle>
    <vehicle id="161" depart="839.0">
        <route edges="n_t t_w"/>
    </vehicle>
    <vehicle id="162" depart="841.0">
        <route edges="s_t t_n"/>
    </vehicle>
    <vehicle id="163" depart="843.0">
        <route edges="e_t t_s s_t t_e"/>
    </vehicle>
    <vehicle id="164" depart="843.0">
        <route edges="n_t t_w"/>
    </vehicle>
    <vehicle id="165" depart="843.0">
        <route edges="w_t t_e"/>
    </vehicle>
    <vehicle id="166" depart="843.0">
        <route edges="s_t t_w"/>
    </vehicle>
    <vehicle id="167" depart="845.0">
        <route edges="w_t t_n n_t t_w"/>
    </vehicle>
    <vehicle id="168" depart="847.0">
        <route edges="s_t t_e"/>
    </vehicle>
    <vehicle id="169" depart="852.0">
        <route edges="n_t t_w"/>
    </vehicle>
    <vehicle id="170" depart="857.0">
        <route edges="w_t t_n n_t t_w"/>
    </vehicle>
    <vehicle id="171" depart="858.0">
        <route edges="n_t t_w"/>
    </vehicle>
    <vehicle id="172" depart="862.0">
        <route edges="w_t t_n"/>
    </vehicle>
    <vehicle id="173" depart="862.0">
        <route edges="n_t t_e e_t t_n"/>
    </vehicle>
    <vehicle id="174" depart="868.0">
        <route edges="s_t t_e"/>
    </vehicle>
    <vehicle id="175" depart="876.0">
        <route edges="e_t t_w"/>
    </vehicle>
    <vehicle id="176" depart="878.0">
        <route edges="n_t t_e e_t t_n"/>
    </vehicle>
    <vehicle id="177" depart="879.0">
        <route edges="s_t t_e e_t t_s"/>
    </vehicle>
    <vehicle id="178" depart="881.0">
        <route edges="s_t t_e e_t t_s"/>
    </vehicle>
    <vehicle id="179" depart="887.0">
        <route edges="e_t t_s s_t t_e"/>
    </vehicle>
    <vehicle id="180" depart="890.0">
        <route edges="n_t t_e e_t t_n"/>
    </vehicle>
    <vehicle id="181" depart="892.0">
        <route edges="w_t t_n"/>
    </vehicle>
    <vehicle id="182" depart="896.0">
        <route edges="e_t t_w"/>
    </vehicle>
    <vehicle id="183" depart="898.0">
        <route edges="n_t t_e e_t t_n"/>
    </vehicle>
    <vehicle id="184" depart="899.0">
        <route edges="s_t t_e e_t t_s"/>
    </vehicle>
    <vehicle id="185" depart="900.0">
        <route edges="e_t t_n"/>
    </vehicle>
    <vehicle id="186" depart="904.0">
        <route edges="e_t t_w"/>
    </vehicle>
    <vehicle id="187" depart="907.0">
        <route edges="w_t t_n n_t t_w"/>
    </vehicle>
    <vehicle id="188" depart="919.0">
        <route edges="e_t t_s"/>
    </vehicle>
    <vehicle id="189" depart="919.0">
        <route edges="n_t t_e"/>
    </vehicle>
    <vehicle id="190" depart="920.0">
        <route edges="e_t t_w"/>
    </vehicle>
    <vehicle id="191" depart="921.0">
        <route edges="s_t t_e e_t t_s"/>
    </vehicle>
    <vehicle id="192" depart="924.0">
        <route edges="e_t t_s"/>
    </vehicle>
    <vehicle id="193" depart="925.0">
        <route edges="w_t t_e"/>
    </vehicle>
    <vehicle id="194" depart="932.0">
        <route edges="e_t t_w"/>
    </vehicle>
    <vehicle id="195" depart="934.0">
        <route edges="n_t t_e e_t t_n"/>
    </vehicle>
    <vehicle id="196" depart="936.0">
        <route edges="w_t t_s"/>
    </vehicle>
    <vehicle id="197" depart="937.0">
        <route edges="n_t t_e e_t t_n"/>
    </vehicle>
    <vehicle id="198" depart="939.0">
        <route edges="e_t t_s s_t t_e"/>
    </vehicle>
    <vehicle id="199" depart="939.0">
        <route edges="s_t t_e"/>
    </vehicle>
    <vehicle id="200" depart="943.0">
        <route edges="n_t t_w"/>
    </vehicle>
    <vehicle id="201" depart="944.0">
        <route edges="e_t t_s s_t t_e"/>
    </vehicle>
    <vehicle id="202" depart="945.0">
        <route edges="e_t t_s"/>
    </vehicle>
    <vehicle id="203" depart="946.0">
        <route edges="e_t t_n"/>
    </vehicle>
    <vehicle id="204" depart="959.0">
        <route edges="s_t t_e e_t t_s"/>
    </vehicle>
    <vehicle id="205" depart="960.0">
        <route edges="w_t t_e"/>
    </vehicle>
    <vehicle id="206" depart="961.0">
        <route edges="n_t t_e"/>
    </vehicle>
    <vehicle id="207" depart="961.0">
        <route edges="n_t t_s"/>
    </vehicle>
    <vehicle id="208" depart="966.0">
        <route edges="n_t t_e e_t t_n"/>
    </vehicle>
    <vehicle id="209" depart="968.0">
        <route edges="n_t t_w"/>
    </vehicle>
    <vehicle id="210" depart="976.0">
        <route edges="w_t t_n n_t t_w"/>
    </vehicle>
    <vehicle id="211" depart="990.0">
        <route edges="s_t t_w"/>
    </vehicle>
    <vehicle id="212" depart="991.0">
        <route edges="s_t t_e"/>
    </vehicle>
    <vehicle id="213" depart="994.0">
        <route edges="e_t t_w"/>
    </vehicle>
    <vehicle id="214" depart="1002.0">
        <route edges="s_t t_e e_t t_s"/>
    </vehicle>
    <vehicle id="215" depart="1002.0">
        <route edges="s_t t_w"/>
    </vehicle>
    <vehicle id="216" depart="1002.0">
        <route edges="e_t t_s s_t t_e"/>
    </vehicle>
    <vehicle id="217" depart="1004.0">
        <route edges="e_t t_s"/>
    </vehicle>
    <vehicle id="218" depart="1012.0">
        <route edges="s_t t_e e_t t_s"/>
    </vehicle>
    <vehicle id="219" depart="1013.0">
        <route edges="e_t t_n"/>
    </vehicle>
    <vehicle id="220" depart="1013.0">
        <route edges="n_t t_e"/>
    </vehicle>
    <vehicle id="221" depart="1014.0">
        <route edges="w_t t_n n_t t_w"/>
    </vehicle>
    <vehicle id="222" depart="1014.0">
        <route edges="w_t t_n"/>
    </vehicle>
    <vehicle id="223" depart="1015.0">
        <route edges="w_t t_n n_t t_w"/>
    </vehicle>
    <vehicle id="224" depart="1022.0">
        <route edges="e_t t_w"/>
    </vehicle>
    <vehicle id="225" depart="1024.0">
        <route edges="w_t t_e"/>
    </vehicle>
    <vehicle id="226" depart="1024.0">
        <route edges="e_t t_s s_t t_e"/>
    </vehicle>
    <vehicle id="227" depart="1026.0">
        <route edges="s_t t_e"/>
    </vehicle>
    <vehicle id="228" depart="1027.0">
        <route edges="e_t t_s s_t t_e"/>
    </vehicle>
    <vehicle id="229" depart="1028.0">
        <route edges="n_t t_e e_t t_n"/>
    </vehicle>
    <vehicle id="230" depart="1031.0">
        <route edges="s_t t_e"/>
    </vehicle>
    <vehicle id="231" depart="1033.0">
        <route edges="s_t t_e e_t t_s"/>
    </vehicle>
    <vehicle id="232" depart="1037.0">
        <route edges="n_t t_w"/>
    </vehicle>
    <vehicle id="233" depart="1044.0">
        <route edges="s_t t_e e_t t_s"/>
    </vehicle>
    <vehicle id="234" depart="1051.0">
        <route edges="e_t t_n"/>
    </vehicle>
    <vehicle id="235" depart="1051.0">
        <route edges="s_t t_n"/>
    </vehicle>
    <vehicle id="236" depart="1052.0">
        <route edges="e_t t_n"/>
    </vehicle>
    <vehicle id="237" depart="1069.0">
        <route edges="n_t t_e"/>
    </vehicle>
    <vehicle id="238" depart="1073.0">
        <route edges="e_t t_w"/>
    </vehicle>
    <vehicle id="239" depart="1075.0">
        <route edges="w_t t_n"/>
    </vehicle>
    <vehicle id="240" depart="1078.0">
        <route edges="w_t t_s"/>
    </vehicle>
    <vehicle id="241" depart="1079.0">
        <route edges="e_t t_s"/>
    </vehicle>
    <vehicle id="242" depart="1080.0">
        <route edges="e_t t_s"/>
    </vehicle>
    <vehicle id="243" depart="1081.0">
        <route edges="s_t t_e"/>
    </vehicle>
    <vehicle id="244" depart="1088.0">
        <route edges="s_t t_e"/>
    </vehicle>
    <vehicle id="245" depart="1092.0">
        <route edges="s_t t_w"/>
    </vehicle>
    <vehicle id="246" depart="1093.0">
        <route edges="w_t t_e"/>
    </vehicle>
    <vehicle id="247" depart="1098.0">
        <route edges="s_t t_e e_t t_s"/>
    </vehicle>
    <vehicle id="248" depart="1099.0">
        <route edges="w_t t_n"/>
    </vehicle>
    <vehicle id="249" depart="1100.0">
        <route edges="e_t t_n"/>
    </vehicle>
    <vehicle id="250" depart="1110.0">
        <route edges="n_t t_w"/>
    </vehicle>
    <vehicle id="251" depart="1113.0">
        <route edges="w_t t_s"/>
    </vehicle>
    <vehicle id="252" depart="1118.0">
        <route edges="w_t t_n"/>
    </vehicle>
    <vehicle id="253" depart="1120.0">
        <route edges="n_t t_e e_t t_n"/>
    </vehicle>
    <vehicle id="254" depart="1123.0">
        <route edges="s_t t_n"/>
    </vehicle>
    <vehicle id="255" depart="1125.0">
        <route edges="w_t t_n"/>
    </vehicle>
    <vehicle id="256" depart="1129.0">
        <route edges="e_t t_s"/>
    </vehicle>
    <vehicle id="257" depart="1129.0">
        <route edges="w_t t_n"/>
    </vehicle>
    <vehicle id="258" depart="1130.0">
        <route edges="n_t t_s"/>
    </vehicle>
    <vehicle id="259" depart="1130.0">
        <route edges="w_t t_n n_t t_w"/>
    </vehicle>
    <vehicle id="260" depart="1145.0">
        <route edges="s_t t_e"/>
    </vehicle>
    <vehicle id="261" depart="1149.0">
        <route edges="s_t t_e e_t t_s"/>
    </vehicle>
    <vehicle id="262" depart="1150.0">
        <route edges="n_t t_s"/>
    </vehicle>
    <vehicle id="263" depart="1151.0">
        <route edges="e_t t_w"/>
    </vehicle>
    <vehicle id="264" depart="1152.0">
        <route edges="s_t t_e e_t t_s"/>
    </vehicle>
    <vehicle id="265" depart="1158.0">
        <route edges="w_t t_n n_t t_w"/>
    </vehicle>
    <vehicle id="266" depart="1158.0">
        <route edges="n_t t_s"/>
    </vehicle>
    <vehicle id="267" depart="1160.0">
        <route edges="e_t t_s"/>
    </vehicle>
    <vehicle id="268" depart="1161.0">
        <route edges="n_t t_s"/>
    </vehicle>
    <vehicle id="269" depart="1162.0">
        <route edges="w_t t_n"/>
    </vehicle>
    <vehicle id="270" depart="1162.0">
        <route edges="e_t t_w"/>
    </vehicle>
    <vehicle id="271" depart="1171.0">
        <route edges="n_t t_w"/>
    </vehicle>
    <vehicle id="272" depart="1175.0">
        <route edges="w_t t_e"/>
    </vehicle>
    <vehicle id="273" depart="1180.0">
        <route edges="s_t t_w"/>
    </vehicle>
    <vehicle id="274" depart="1189.0">
        <route edges="s_t t_e e_t t_s"/>
    </vehicle>
    <vehicle id="275" depart="1189.0">
        <route edges="e_t t_n"/>
    </vehicle>
    <vehicle id="276" depart="1195.0">
        <route edges="w_t t_e"/>
    </vehicle>
    <vehicle id="277" depart="1197.0">
        <route edges="s_t t_n"/>
    </vehicle>
    <vehicle id="278" depart="1204.0">
        <route edges="n_t t_w"/>
    </vehicle>
    <vehicle id="279" depart="1210.0">
        <route edges="n_t t_e e_t t_n"/>
    </vehicle>
    <vehicle id="280" depart="1214.0">
        <route edges="w_t t_n"/>
    </vehicle>
    <vehicle id="281" depart="1215.0">
        <route edges="w_t t_n"/>
    </vehicle>
    <vehicle id="282" depart="1220.0">
        <route edges="s_t t_e"/>
    </vehicle>
    <vehicle id="283" depart="1229.0">
        <route edges="w_t t_n"/>
    </vehicle>
    <vehicle id="284" depart="1230.0">
        <route edges="n_t t_w"/>
    </vehicle>
    <vehicle id="285" depart="1231.0">
        <route edges="n_t t_e"/>
    </vehicle>
    <vehicle id="286" depart="1231.0">
        <route edges="n_t t_e"/>
    </vehicle>
    <vehicle id="287" depart="1235.0">
        <route edges="e_t t_w"/>
    </vehicle>
    <vehicle id="288" depart="1239.0">
        <route edges="w_t t_s"/>
    </vehicle>
    <vehicle id="289" depart="1242.0">
        <route edges="s_t t_n"/>
    </vehicle>
    <vehicle id="290" depart="1243.0">
        <route edges="s_t t_n"/>
    </vehicle>
    <vehicle id="291" depart="1247.0">
        <route edges="s_t t_w"/>
    </vehicle>
    <vehicle id="292" depart="1250.0">
        <route edges="n_t t_e e_t t_n"/>
    </vehicle>
    <vehicle id="293" depart="1253.0">
        <route edges="n_t t_e"/>
    </vehicle>
    <vehicle id="294" depart="1255.0">
        <route edges="w_t t_n n_t t_w"/>
    </vehicle>
    <vehicle id="295" depart="1259.0">
        <route edges="n_t t_e"/>
    </vehicle>
    <vehicle id="296" depart="1260.0">
        <route edges="s_t t_w"/>
    </vehicle>
    <vehicle id="297" depart="1263.0">
        <route edges="n_t t_w"/>
    </vehicle>
    <vehicle id="298" depart="1270.0">
        <route edges="n_t t_e"/>
    </vehicle>
    <vehicle id="299" depart="1273.0">
        <route edges="w_t t_s"/>
    </vehicle>
    <vehicle id="300" depart="1275.0">
        <route edges="n_t t_s"/>
    </vehicle>
    <vehicle id="301" depart="1278.0">
        <route edges="n_t t_w"/>
    </vehicle>
    <vehicle id="302" depart="1279.0">
        <route edges="s_t t_e e_t t_s"/>
    </vehicle>
    <vehicle id="303" depart="1282.0">
        <route edges="n_t t_s"/>
    </vehicle>
    <vehicle id="304" depart="1283.0">
        <route edges="e_t t_w"/>
    </vehicle>
    <vehicle id="305" depart="1284.0">
        <route edges="s_t t_w"/>
    </vehicle>
    <vehicle id="306" depart="1291.0">
        <route edges="e_t t_s s_t t_e"/>
    </vehicle>
    <vehicle id="307" depart="1292.0">
        <route edges="n_t t_e"/>
    </vehicle>
    <vehicle id="308" depart="1294.0">
        <route edges="n_t t_s"/>
    </vehicle>
    <vehicle id="309" depart="1301.0">
        <route edges="w_t t_e"/>
    </vehicle>
    <vehicle id="310" depart="1309.0">
        <route edges="s_t t_e"/>
    </vehicle>
    <vehicle id="311" depart="1321.0">
        <route edges="w_t t_n n_t t_w"/>
    </vehicle>
    <vehicle id="312" depart="1327.0">
        <route edges="s_t t_n"/>
    </vehicle>
    <vehicle id="313" depart="1328.0">
        <route edges="n_t t_s"/>
    </vehicle>
    <vehicle id="314" depart="1329.0">
        <route edges="w_t t_e"/>
    </vehicle>
    <vehicle id="315" depart="1339.0">
        <route edges="n_t t_w"/>
    </vehicle>
    <vehicle id="316" depart="1351.0">
        <route edges="w_t t_e"/>
    </vehicle>
    <vehicle id="317" depart="1360.0">
        <route edges="e_t t_s s_t t_e"/>
    </vehicle>
    <vehicle id="318" depart="1361.0">
        <route edges="n_t t_w"/>
    </vehicle>
    <vehicle id="319" depart="1374.0">
        <route edges="s_t t_e"/>
    </vehicle>
    <vehicle id="320" depart="1377.0">
        <route edges="e_t t_s s_t t_e"/>
    </vehicle>
    <vehicle id="321" depart="1379.0">
        <route edges="n_t t_e"/>
    </vehicle>
    <vehicle id="322" depart="1383.0">
        <route edges="e_t t_s"/>
    </vehicle>
    <vehicle id="323" depart="1389.0">
        <route edges="e_t t_s s_t t_e"/>
    </vehicle>
    <vehicle id="324" depart="1389.0">
        <route edges="e_t t_w"/>
    </vehicle>