<?xml version="1.0" encoding="UTF-8"?>

<!-- generated on 2023-06-30 22:41:31.488801 by randomTrips.py UNKNOWN
<configuration>
    <net-file value="nets/2way-single-intersection/single-intersection.net.xml"/>
    <route-file value="training/routes/2x2_tr_ep2.rou.xml"/>
    <seed value="2"/>
    <validate value="True"/>
    <end value="500.0"/>
</configuration>
-->

<!-- generated on 2023-06-30 22:41:31 by Eclipse SUMO duarouter Version v1_17_0+1256-16eabe86c67
<configuration xmlns:xsi="http://www.w3.org/2001/XMLSchema-instance" xsi:noNamespaceSchemaLocation="http://sumo.dlr.de/xsd/duarouterConfiguration.xsd">

    <input>
        <net-file value="nets/2way-single-intersection/single-intersection.net.xml"/>
        <route-files value="trips.trips.xml"/>
    </input>

    <output>
        <output-file value="training/routes/2x2_tr_ep2.rou.xml"/>
        <alternatives-output value="NUL"/>
    </output>

    <time>
        <begin value="0"/>
        <end value="500.0"/>
    </time>

    <report>
        <no-warnings value="true"/>
        <ignore-errors value="true"/>
        <no-step-log value="true"/>
    </report>

</configuration>
-->

<routes xmlns:xsi="http://www.w3.org/2001/XMLSchema-instance" xsi:noNamespaceSchemaLocation="http://sumo.dlr.de/xsd/routes_file.xsd">
    <vehicle id="0" depart="96.0">
        <route edges="w_t t_n n_t t_w"/>
    </vehicle>
    <vehicle id="1" depart="96.0">
        <route edges="e_t t_s s_t t_e"/>
    </vehicle>
    <vehicle id="2" depart="119.0">
        <route edges="w_t t_s"/>
    </vehicle>
    <vehicle id="3" depart="140.0">
        <route edges="s_t t_n"/>
    </vehicle>
    <vehicle id="4" depart="142.0">
        <route edges="s_t t_e e_t t_s"/>
    </vehicle>
    <vehicle id="5" depart="184.0">
        <route edges="s_t t_e"/>
    </vehicle>
    <vehicle id="6" depart="212.0">
        <route edges="n_t t_e e_t t_n"/>
    </vehicle>
    <vehicle id="7" depart="222.0">
        <route edges="s_t t_w"/>
    </vehicle>
    <vehicle id="8" depart="240.0">
        <route edges="w_t t_s"/>
    </vehicle>
    <vehicle id="9" depart="243.0">
        <route edges="n_t t_e e_t t_n"/>
    </vehicle>
    <vehicle id="10" depart="256.0">
        <route edges="e_t t_s s_t t_e"/>
    </vehicle>
    <vehicle id="11" depart="279.0">
        <route edges="n_t t_e e_t t_n"/>
    </vehicle>
    <vehicle id="12" depart="283.0">
        <route edges="n_t t_w"/>
    </vehicle>
    <vehicle id="13" depart="288.0">
        <route edges="s_t t_e e_t t_s"/>
    </vehicle>
    <vehicle id="14" depart="288.0">
        <route edges="e_t t_s s_t t_e"/>
    </vehicle>
    <vehicle id="15" depart="289.0">
        <route edges="n_t t_e"/>
    </vehicle>
    <vehicle id="16" depart="301.0">
        <route edges="s_t t_w"/>
    </vehicle>
    <vehicle id="17" depart="309.0">
        <route edges="s_t t_e"/>
    </vehicle>
    <vehicle id="18" depart="321.0">
        <route edges="w_t t_n n_t t_w"/>
    </vehicle>
    <vehicle id="19" depart="326.0">
        <route edges="s_t t_w"/>
    </vehicle>
    <vehicle id="20" depart="334.0">
        <route edges="w_t t_n n_t t_w"/>
    </vehicle>
    <vehicle id="21" depart="350.0">
        <route edges="n_t t_w"/>
    </vehicle>
    <vehicle id="22" depart="352.0">
        <route edges="w_t t_e"/>
    </vehicle>
    <vehicle id="23" depart="354.0">
        <route edges="w_t t_s"/>
    </vehicle>
    <vehicle id="24" depart="359.0">
        <route edges="n_t t_s"/>
    </vehicle>
    <vehicle id="25" depart="363.0">
        <route edges="n_t t_w"/>
    </vehicle>
    <vehicle id="26" depart="377.0">
        <route edges="s_t t_w"/>
    </vehicle>
    <vehicle id="27" depart="381.0">
        <route edges="n_t t_w"/>
    </vehicle>
    <vehicle id="28" depart="390.0">
        <route edges="w_t t_n"/>
    </vehicle>
    <vehicle id="29" depart="394.0">
        <route edges="s_t t_w"/>
    </vehicle>
    <vehicle id="30" depart="399.0">
        <route edges="s_t t_n"/>
    </vehicle>
    <vehicle id="31" depart="425.0">
        <route edges="e_t t_n"/>
    </vehicle>
    <vehicle id="32" depart="428.0">
        <route edges="s_t t_e"/>
    </vehicle>
    <vehicle id="33" depart="432.0">
        <route edges="w_t t_n"/>
    </vehicle>
    <vehicle id="34" depart="433.0">
        <route edges="w_t t_n"/>
    </vehicle>
    <vehicle id="35" depart="434.0">
        <route edges="w_t t_s"/>
    </vehicle>
    <vehicle id="36" depart="436.0">
        <route edges="s_t t_e e_t t_s"/>
    </vehicle>
    <vehicle id="37" depart="438.0">
        <route edges="s_t t_e e_t t_s"/>
    </vehicle>
    <vehicle id="38" depart="446.0">
        <route edges="n_t t_e"/>
    </vehicle>
    <vehicle id="39" depart="455.0">
        <route edges="s_t t_w"/>
    </vehicle>
    <vehicle id="40" depart="456.0">
        <route edges="s_t t_e"/>
    </vehicle>
    <vehicle id="41" depart="459.0">
        <route edges="w_t t_s"/>
    </vehicle>
    <vehicle id="42" depart="484.0">
        <route edges="w_t t_e"/>
    </vehicle>
    <vehicle id="43" depart="489.0">
        <route edges="s_t t_e"/>
    </vehicle>
    <vehicle id="44" depart="493.0">
        <route edges="s_t t_n"/>
    </vehicle>
    <vehicle id="45" depart="497.0">
        <route edges="e_t t_w"/>
    </vehicle>
    <vehicle id="46" depart="505.0">
        <route edges="e_t t_s"/>
    </vehicle>
    <vehicle id="47" depart="507.0">
        <route edges="w_t t_e"/>
    </vehicle>
    <vehicle id="48" depart="509.0">
        <route edges="e_t t_w"/>
    </vehicle>
    <vehicle id="49" depart="510.0">
        <route edges="n_t t_s"/>
    </vehicle>
    <vehicle id="50" depart="524.0">
        <route edges="e_t t_n"/>
    </vehicle>
    <vehicle id="51" depart="526.0">
        <route edges="e_t t_s"/>
    </vehicle>
    <vehicle id="52" depart="535.0">
        <route edges="e_t t_w"/>
    </vehicle>
    <vehicle id="53" depart="540.0">
        <route edges="e_t t_s"/>
    </vehicle>
    <vehicle id="54" depart="547.0">
        <route edges="e_t t_n"/>
    </vehicle>
    <vehicle id="55" depart="559.0">
        <route edges="w_t t_e"/>
    </vehicle>
    <vehicle id="56" depart="574.0">
        <route edges="e_t t_s"/>
    </vehicle>
    <vehicle id="57" depart="577.0">
        <route edges="n_t t_e"/>
    </vehicle>
    <vehicle id="58" depart="582.0">
        <route edges="w_t t_e"/>
    </vehicle>
    <vehicle id="59" depart="587.0">
        <route edges="e_t t_n"/>
    </vehicle>
    <vehicle id="60" depart="587.0">
        <route edges="s_t t_e e_t t_s"/>
    </vehicle>
    <vehicle id="61" depart="588.0">
        <route edges="e_t t_n"/>
    </vehicle>
    <vehicle id="62" depart="589.0">
        <route edges="e_t t_n"/>
    </vehicle>
    <vehicle id="63" depart="592.0">
        <route edges="w_t t_s"/>
    </vehicle>
    <vehicle id="64" depart="598.0">
        <route edges="w_t t_n n_t t_w"/>
    </vehicle>
    <vehicle id="65" depart="599.0">
        <route edges="w_t t_s"/>
    </vehicle>
    <vehicle id="66" depart="620.0">
        <route edges="n_t t_e"/>
    </vehicle>
    <vehicle id="67" depart="620.0">
        <route edges="s_t t_n"/>
    </vehicle>
    <vehicle id="68" depart="623.0">
        <route edges="e_t t_n"/>
    </vehicle>
    <vehicle id="69" depart="635.0">
        <route edges="w_t t_e"/>
    </vehicle>
    <vehicle id="70" depart="639.0">
        <route edges="s_t t_n"/>
    </vehicle>
    <vehicle id="71" depart="659.0">
        <route edges="s_t t_e"/>
    </vehicle>
    <vehicle id="72" depart="662.0">
        <route edges="w_t t_n"/>
    </vehicle>
    <vehicle id="73" depart="663.0">
        <route edges="s_t t_n"/>
    </vehicle>
    <vehicle id="74" depart="669.0">
        <route edges="e_t t_s"/>
    </vehicle>
    <vehicle id="75" depart="671.0">
        <route edges="e_t t_s s_t t_e"/>
    </vehicle>
    <vehicle id="76" depart="671.0">
        <route edges="e_t t_s s_t t_e"/>
    </vehicle>
    <vehicle id="77" depart="677.0">
        <route edges="e_t t_s"/>
    </vehicle>
    <vehicle id="78" depart="690.0">
        <route edges="s_t t_w"/>
    </vehicle>
    <vehicle id="79" depart="691.0">
        <route edges="w_t t_n n_t t_w"/>
    </vehicle>
    <vehicle id="80" depart="711.0">
        <route edges="e_t t_n"/>
    </vehicle>
    <vehicle id="81" depart="712.0">
        <route edges="n_t t_s"/>
    </vehicle>
    <vehicle id="82" depart="721.0">
        <route edges="s_t t_w"/>
    </vehicle>
    <vehicle id="83" depart="722.0">
        <route edges="s_t t_n"/>
    </vehicle>
    <vehicle id="84" depart="722.0">
        <route edges="n_t t_s"/>
    </vehicle>
    <vehicle id="85" depart="744.0">
        <route edges="e_t t_s s_t t_e"/>
    </vehicle>
    <vehicle id="86" depart="749.0">
        <route edges="n_t t_e"/>
    </vehicle>
    <vehicle id="87" depart="755.0">
        <route edges="s_t t_e"/>
    </vehicle>
    <vehicle id="88" depart="759.0">
        <route edges="e_t t_s s_t t_e"/>
    </vehicle>
    <vehicle id="89" depart="762.0">
        <route edges="e_t t_s s_t t_e"/>
    </vehicle>
    <vehicle id="90" depart="762.0">
        <route edges="s_t t_n"/>
    </vehicle>
    <vehicle id="91" depart="763.0">
        <route edges="n_t t_s"/>
    </vehicle>
    <vehicle id="92" depart="774.0">
        <route edges="e_t t_w"/>
    </vehicle>
    <vehicle id="93" depart="779.0">
        <route edges="w_t t_s"/>
    </vehicle>
    <vehicle id="94" depart="781.0">
        <route edges="n_t t_s"/>
    </vehicle>
    <vehicle id="95" depart="798.0">
        <route edges="s_t t_e"/>
    </vehicle>
    <vehicle id="96" depart="799.0">
        <route edges="n_t t_s"/>
    </vehicle>
    <vehicle id="97" depart="806.0">
        <route edges="e_t t_s s_t t_e"/>
    </vehicle>
    <vehicle id="98" depart="814.0">
        <route edges="w_t t_n"/>
    </vehicle>
    <vehicle id="99" depart="816.0">
        <route edges="s_t t_w"/>
    </vehicle>
    <vehicle id="100" depart="827.0">
        <route edges="s_t t_n"/>
    </vehicle>
    <vehicle id="101" depart="828.0">
        <route edges="w_t t_n"/>
    </vehicle>
    <vehicle id="102" depart="835.0">
        <route edges="e_t t_s"/>
    </vehicle>
    <vehicle id="103" depart="850.0">
        <route edges="e_t t_n"/>
    </vehicle>
    <vehicle id="104" depart="852.0">
        <route edges="w_t t_s"/>
    </vehicle>
    <vehicle id="105" depart="852.0">
        <route edges="e_t t_n"/>
    </vehicle>
    <vehicle id="106" depart="854.0">
        <route edges="n_t t_e e_t t_n"/>
    </vehicle>
    <vehicle id="107" depart="879.0">
        <route edges="e_t t_s"/>
    </vehicle>
    <vehicle id="108" depart="880.0">
        <route edges="e_t t_n"/>
    </vehicle>
    <vehicle id="109" depart="894.0">
        <route edges="n_t t_w"/>
    </vehicle>
    <vehicle id="110" depart="897.0">
        <route edges="e_t t_w"/>
    </vehicle>
    <vehicle id="111" depart="902.0">
        <route edges="e_t t_s"/>
    </vehicle>
    <vehicle id="112" depart="911.0">
        <route edges="n_t t_e e_t t_n"/>
    </vehicle>
    <vehicle id="113" depart="913.0">
        <route edges="w_t t_n"/>
    </vehicle>
    <vehicle id="114" depart="916.0">
        <route edges="e_t t_s s_t t_e"/>
    </vehicle>
    <vehicle id="115" depart="920.0">
        <route edges="e_t t_w"/>
    </vehicle>
    <vehicle id="116" depart="923.0">
        <route edges="s_t t_w"/>
    </vehicle>
    <vehicle id="117" depart="925.0">
        <route edges="s_t t_e"/>
    </vehicle>
    <vehicle id="118" depart="928.0">
        <route edges="s_t t_w"/>
    </vehicle>
    <vehicle id="119" depart="933.0">
        <route edges="s_t t_n"/>
    </vehicle>
    <vehicle id="120" depart="934.0">
        <route edges="n_t t_e e_t t_n"/>
    </vehicle>
    <vehicle id="121" depart="936.0">
        <route edges="w_t t_n"/>
    </vehicle>
    <vehicle id="122" depart="940.0">
        <route edges="s_t t_n"/>
    </vehicle>
    <vehicle id="123" depart="952.0">
        <route edges="w_t t_n n_t t_w"/>
    </vehicle>
    <vehicle id="124" depart="958.0">
        <route edges="w_t t_n n_t t_w"/>
    </vehicle>
    <vehicle id="125" depart="962.0">
        <route edges="n_t t_e"/>
    </vehicle>
    <vehicle id="126" depart="964.0">
        <route edges="n_t t_e e_t t_n"/>
    </vehicle>
    <vehicle id="127" depart="964.0">
        <route edges="n_t t_s"/>
    </vehicle>
    <vehicle id="128" depart="972.0">
        <route edges="w_t t_s"/>
    </vehicle>
    <vehicle id="129" depart="984.0">
        <route edges="w_t t_e"/>
    </vehicle>
    <vehicle id="130" depart="1000.0">
        <route edges="n_t t_w"/>
    </vehicle>
    <vehicle id="131" depart="1009.0">
        <route edges="e_t t_n"/>
    </vehicle>
    <vehicle id="132" depart="1014.0">
        <route edges="e_t t_s s_t t_e"/>
    </vehicle>
    <vehicle id="133" depart="1028.0">
        <route edges="w_t t_n n_t t_w"/>
    </vehicle>
    <vehicle id="134" depart="1036.0">
        <route edges="s_t t_e"/>
    </vehicle>
    <vehicle id="135" depart="1043.0">
        <route edges="n_t t_e"/>
    </vehicle>
    <vehicle id="136" depart="1051.0">
        <route edges="s_t t_e e_t t_s"/>
    </vehicle>
    <vehicle id="137" depart="1053.0">
        <route edges="n_t t_s"/>
    </vehicle>
    <vehicle id="138" depart="1055.0">
        <route edges="e_t t_s"/>
    </vehicle>
    <vehicle id="139" depart="1063.0">
        <route edges="w_t t_n n_t t_w"/>
    </vehicle>
    <vehicle id="140" depart="1067.0">
        <route edges="e_t t_s"/>
    </vehicle>
    <vehicle id="141" depart="1077.0">
        <route edges="s_t t_n"/>
    </vehicle>
    <vehicle id="142" depart="1083.0">
        <route edges="w_t t_n"/>
    </vehicle>
    <vehicle id="143" depart="1084.0">
        <route edges="s_t t_n"/>
    </vehicle>
    <vehicle id="144" depart="1087.0">
        <route edges="w_t t_n n_t t_w"/>
    </vehicle>
    <vehicle id="145" depart="1096.0">
        <route edges="s_t t_e"/>
    </vehicle>
    <vehicle id="146" depart="1096.0">
        <route edges="n_t t_e"/>
    </vehicle>
    <vehicle id="147" depart="1099.0">
        <route edges="s_t t_w"/>
    </vehicle>
    <vehicle id="148" depart="1104.0">
        <route edges="e_t t_s"/>
    </vehicle>
    <vehicle id="149" depart="1105.0">
        <route edges="n_t t_e e_t t_n"/>
    </vehicle>
    <vehicle id="150" depart="1107.0">
        <route edges="s_t t_w"/>
    </vehicle>
    <vehicle id="151" depart="1118.0">
        <route edges="s_t t_n"/>
    </vehicle>
    <vehicle id="152" depart="1121.0">
        <route edges="w_t t_n"/>
    </vehicle>
    <vehicle id="153" depart="1122.0">
        <route edges="s_t t_e e_t t_s"/>
    </vehicle>
    <vehicle id="154" depart="1126.0">
        <route edges="w_t t_n n_t t_w"/>
    </vehicle>
    <vehicle id="155" depart="1129.0">
        <route edges="e_t t_s"/>
    </vehicle>
    <vehicle id="156" depart="1129.0">
        <route edges="n_t t_s"/>
    </vehicle>
    <vehicle id="157" depart="1130.0">
        <route edges="w_t t_s"/>
    </vehicle>
    <vehicle id="158" depart="1138.0">
        <route edges="e_t t_n"/>
    </vehicle>
    <vehicle id="159" depart="1139.0">
        <route edges="s_t t_w"/>
    </vehicle>
    <vehicle id="160" depart="1140.0">
        <route edges="s_t t_w"/>
    </vehicle>
    <vehicle id="161" depart="1157.0">
        <route edges="e_t t_w"/>
    </vehicle>
    <vehicle id="162" depart="1162.0">
        <route edges="s_t t_e e_t t_s"/>
    </vehicle>
    <vehicle id="163" depart="1163.0">
        <route edges="w_t t_n n_t t_w"/>
    </vehicle>
    <vehicle id="164" depart="1163.0">
        <route edges="e_t t_w"/>
    </vehicle>
    <vehicle id="165" depart="1164.0">
        <route edges="w_t t_e"/>
    </vehicle>
    <vehicle id="166" depart="1164.0">
        <route edges="s_t t_e e_t t_s"/>
    </vehicle>
    <vehicle id="167" depart="1166.0">
        <route edges="e_t t_w"/>
    </vehicle>
    <vehicle id="168" depart="1179.0">
        <route edges="e_t t_s"/>
    </vehicle>
    <vehicle id="169" depart="1184.0">
        <route edges="n_t t_e e_t t_n"/>
    </vehicle>
    <vehicle id="170" depart="1188.0">
        <route edges="s_t t_n"/>
    </vehicle>
    <vehicle id="171" depart="1194.0">
        <route edges="e_t t_w"/>
    </vehicle>
    <vehicle id="172" depart="1196.0">
        <route edges="e_t t_s s_t t_e"/>
    </vehicle>
    <vehicle id="173" depart="1199.0">
        <route edges="n_t t_w"/>
    </vehicle>
    <vehicle id="174" depart="1206.0">
        <route edges="s_t t_w"/>
    </vehicle>
    <vehicle id="175" depart="1211.0">
        <route edges="n_t t_s"/>
    </vehicle>
    <vehicle id="176" depart="1214.0">
        <route edges="n_t t_e e_t t_n"/>
    </vehicle>
    <vehicle id="177" depart="1215.0">
        <route edges="s_t t_e"/>
    </vehicle>
    <vehicle id="178" depart="1219.0">
        <route edges="e_t t_w"/>
    </vehicle>
    <vehicle id="179" depart="1220.0">
        <route edges="e_t t_w"/>
    </vehicle>
    <vehicle id="180" depart="1224.0">
        <route edges="w_t t_n"/>
    </vehicle>
    <vehicle id="181" depart="1226.0">
        <route edges="s_t t_w"/>
    </vehicle>
    <vehicle id="182" depart="1245.0">
        <route edges="w_t t_e"/>
    </vehicle>
    <vehicle id="183" depart="1246.0">
        <route edges="e_t t_n"/>
    </vehicle>
    <vehicle id="184" depart="1246.0">
        <route edges="n_t t_e e_t t_n"/>
    </vehicle>
    <vehicle id="185" depart="1254.0">
        <route edges="e_t t_s"/>
    </vehicle>
    <vehicle id="186" depart="1256.0">
        <route edges="w_t t_n"/>
    </vehicle>
    <vehicle id="187" depart="1274.0">
        <route edges="s_t t_n"/>
    </vehicle>
    <vehicle id="188" depart="1274.0">
        <route edges="n_t t_w"/>
    </vehicle>
    <vehicle id="189" depart="1278.0">
        <route edges="n_t t_s"/>
    </vehicle>
    <vehicle id="190" depart="1278.0">
        <route edges="n_t t_s"/>
    </vehicle>
    <vehicle id="191" depart="1283.0">
        <route edges="w_t t_e"/>
    </vehicle>
    <vehicle id="192" depart="1307.0">
        <route edges="w_t t_n"/>
    </vehicle>
    <vehicle id="193" depart="1308.0">
        <route edges="s_t t_w"/>
    </vehicle>
    <vehicle id="194" depart="1309.0">
        <route edges="s_t t_n"/>
    </vehicle>
    <vehicle id="195" depart="1317.0">
        <route edges="w_t t_e"/>
    </vehicle>
    <vehicle id="196" depart="1323.0">
        <route edges="s_t t_n"/>
    </vehicle>
    <vehicle id="197" depart="1325.0">
        <route edges="s_t t_w"/>
    </vehicle>
    <vehicle id="198" depart="1327.0">
        <route edges="w_t t_s"/>
    </vehicle>
    <vehicle id="199" depart="1329.0">
        <route edges="n_t t_e"/>
    </vehicle>
    <vehicle id="200" depart="1330.0">
        <route edges="n_t t_e"/>
    </vehicle>
    <vehicle id="201" depart="1338.0">
        <route edges="n_t t_w"/>
    </vehicle>
    <vehicle id="202" depart="1343.0">
        <route edges="e_t t_w"/>
    </vehicle>
    <vehicle id="203" depart="1347.0">
        <route edges="n_t t_e e_t t_n"/>
    </vehicle>
    <vehicle id="204" depart="1352.0">
        <route edges="n_t t_e"/>
    </vehicle>
    <vehicle id="205" depart="1352.0">
        <route edges="n_t t_e"/>
    </vehicle>
    <vehicle id="206" depart="1353.0">
        <route edges="n_t t_e e_t t_n"/>
    </vehicle>
    <vehicle id="207" depart="1354.0">
        <route edges="w_t t_n n_t t_w"/>
    </vehicle>
    <vehicle id="208" depart="1356.0">
        <route edges="n_t t_s"/>
    </vehicle>
    <vehicle id="209" depart="1361.0">
        <route edges="w_t t_n"/>
    </vehicle>
    <vehicle id="210" depart="1363.0">
        <route edges="e_t t_s s_t t_e"/>
    </vehicle>
    <vehicle id="211" depart="1366.0">
        <route edges="e_t t_s"/>
    </vehicle>
    <vehicle id="212" depart="1369.0">
        <route edges="n_t t_e e_t t_n"/>
    </vehicle>
    <vehicle id="213" depart="1376.0">
        <route edges="w_t t_e"/>
    </vehicle>
    <vehicle id="214" depart="1383.0">
        <route edges="w_t t_s"/>
    </vehicle>
    <vehicle id="215" depart="1384.0">
        <route edges="n_t t_w"/>
    </vehicle>
    <vehicle id="216" depart="1386.0">
        <route edges="n_t t_w"/>
    </vehicle>
    <vehicle id="217" depart="1386.0">
        <route edges="w_t t_s"/>
    </vehicle>
    <vehicle id="218" depart="1391.0">
        <route edges="s_t t_w"/>
    </vehicle>
    <vehicle id="219" depart="1393.0">
        <route edges="s_t t_w"/>
    </vehicle>
    <vehicle id="220" depart="1400.0">
        <route edges="w_t t_n n_t t_w"/>
    </vehicle>
    <vehicle id="221" depart="1405.0">
        <route edges="w_t t_n n_t t_w"/>
    </vehicle>
    <vehicle id="222" depart="1407.0">
        <route edges="n_t t_s"/>
    </vehicle>
    <vehicle id="223" depart="1407.0">
        <route edges="s_t t_n"/>
    </vehicle>
    <vehicle id="224" depart="1408.0">
        <route edges="n_t t_e"/>
    </vehicle>
    <vehicle id="225" depart="1413.0">
        <route edges="w_t t_n"/>
    </vehicle>
    <vehicle id="226" depart="1427.0">
        <route edges="n_t t_w"/>
    </vehicle>
    <vehicle id="227" depart="1428.0">
        <route edges="e_t t_w"/>
    </vehicle>
    <vehicle id="228" depart="1439.0">
        <route edges="e_t t_s s_t t_e"/>
    </vehicle>
    <vehicle id="229" depart="1440.0">
        <route edges="n_t t_e e_t t_n"/>
    </vehicle>
    <vehicle id="230" depart="1452.0">
        <route edges="w_t t_n n_t t_w"/>
    </vehicle>
    <vehicle id="231" depart="1455.0">
        <route edges="w_t t_n"/>
    </vehicle>
    <vehicle id="232" depart="1455.0">
        <route edges="s_t t_e"/>
    </vehicle>
    <vehicle id="233" depart="1457.0">
        <route edges="w_t t_n"/>
    </vehicle>
    <vehicle id="234" depart="1461.0">
        <route edges="n_t t_s"/>
    </vehicle>
    <vehicle id="235" depart="1462.0">
        <route edges="e_t t_n"/>
    </vehicle>
    <vehicle id="236" depart="1465.0">
        <route edges="w_t t_e"/>
    </vehicle>
    <vehicle id="237" depart="1468.0">
        <route edges="e_t t_s s_t t_e"/>
    </vehicle>
    <vehicle id="238" depart="1471.0">
        <route edges="n_t t_e e_t t_n"/>
    </vehicle>
    <vehicle id="239" depart="1474.0">
        <route edges="n_t t_e e_t t_n"/>
    </vehicle>
    <vehicle id="240" depart="1480.0">
        <route edges="e_t t_s s_t t_e"/>
    </vehicle>
    <vehicle id="241" depart="1481.0">
        <route edges="s_t t_n"/>
    </vehicle>
    <vehicle id="242" depart="1485.0">
        <route edges="n_t t_w"/>
    </vehicle>
    <vehicle id="243" depart="1486.0">
        <route edges="e_t t_s s_t t_e"/>
    </vehicle>
    <vehicle id="244" depart="1490.0">
        <route edges="w_t t_n"/>
    </vehicle>
    <vehicle id="245" depart="1495.0">
        <route edges="w_t t_e"/>
    </vehicle>
    <vehicle id="246" depart="1504.0">
        <route edges="s_t t_w"/>
    </vehicle>
    <vehicle id="247" depart="1511.0">
        <route edges="n_t t_w"/>
    </vehicle>
    <vehicle id="248" depart="1513.0">
        <route edges="s_t t_n"/>
    </vehicle>
    <vehicle id="249" depart="1515.0">
        <route edges="w_t t_n"/>
    </vehicle>
    <vehicle id="250" depart="1518.0">
        <route edges="n_t t_s"/>
    </vehicle>
    <vehicle id="251" depart="1520.0">
        <route edges="n_t t_w"/>
    </vehicle>
    <vehicle id="252" depart="1531.0">
        <route edges="s_t t_e e_t t_s"/>
    </vehicle>
    <vehicle id="253" depart="1536.0">
        <route edges="s_t t_w"/>
    </vehicle>
    <vehicle id="254" depart="1548.0">
        <route edges="w_t t_n n_t t_w"/>
    </vehicle>
    <vehicle id="255" depart="1549.0">
        <route edges="n_t t_e e_t t_n"/>
    </vehicle>
    <vehicle id="256" depart="1549.0">
        <route edges="s_t t_e"/>
    </vehicle>
    <vehicle id="257" depart="1556.0">
        <route edges="e_t t_w"/>
    </vehicle>
    <vehicle id="258" depart="1557.0">
        <route edges="e_t t_w"/>
    </vehicle>
    <vehicle id="259" depart="1562.0">
        <route edges="s_t t_w"/>
    </vehicle>
    <vehicle id="260" depart="1571.0">
        <route edges="e_t t_n"/>
    </vehicle>
    <vehicle id="261" depart="1577.0">
        <route edges="w_t t_e"/>
    </vehicle>
    <vehicle id="262" depart="1579.0">
        <route edges="e_t t_n"/>
    </vehicle>
    <vehicle id="263" depart="1581.0">
        <route edges="e_t t_s s_t t_e"/>
    </vehicle>
    <vehicle id="264" depart="1586.0">
        <route edges="s_t t_e"/>
    </vehicle>
    <vehicle id="265" depart="1586.0">
        <route edges="w_t t_s"/>
    </vehicle>
    <vehicle id="266" depart="1587.0">
        <route edges="e_t t_w"/>
    </vehicle>
    <vehicle id="267" depart="1593.0">
        <route edges="e_t t_n"/>
    </vehicle>
    <vehicle id="268" depart="1594.0">
        <route edges="s_t t_e"/>
    </vehicle>
    <vehicle id="269" depart="1595.0">
        <route edges="s_t t_e"/>
    </vehicle>
    <vehicle id="270" depart="1599.0">
        <route edges="e_t t_w"/>
    </vehicle>
    <vehicle id="271" depart="1603.0">
        <route edges="w_t t_s"/>
    </vehicle>
    <vehicle id="272" depart="1611.0">
        <route edges="s_t t_w"/>
    </vehicle>
    <vehicle id="273" depart="1620.0">
        <route edges="e_t t_n"/>
    </vehicle>
    <vehicle id="274" depart="1624.0">
        <route edges="e_t t_s s_t t_e"/>
    </vehicle>
    <vehicle id="275" depart="1626.0">
        <route edges="e_t t_s s_t t_e"/>
    </vehicle>
    <vehicle id="276" depart="1638.0">
        <route edges="e_t t_s s_t t_e"/>
    </vehicle>
    <vehicle id="277" depart="1640.0">
        <route edges="n_t t_s"/>
    </vehicle>
    <vehicle id="278" depart="1646.0">
        <route edges="w_t t_n n_t t_w"/>
    </vehicle>
    <vehicle id="279" depart="1646.0">
        <route edges="s_t t_e e_t t_s"/>
    </vehicle>
    <vehicle id="280" depart="1655.0">
        <route edges="w_t t_e"/>
    </vehicle>
    <vehicle id="281" depart="1656.0">
        <route edges="e_t t_w"/>
    </vehicle>
    <vehicle id="282" depart="1658.0">
        <route edges="s_t t_e"/>
    </vehicle>
    <vehicle id="283" depart="1658.0">
        <route edges="n_t t_e e_t t_n"/>
    </vehicle>
    <vehicle id="284" depart="1660.0">
        <route edges="n_t t_e e_t t_n"/>
    </vehicle>
    <vehicle id="285" depart="1671.0">
        <route edges="n_t t_w"/>
    </vehicle>
    <vehicle id="286" depart="1672.0">
        <route edges="w_t t_s"/>
    </vehicle>
    <vehicle id="287" depart="1684.0">
        <route edges="n_t t_e e_t t_n"/>
    </vehicle>
    <vehicle id="288" depart="1687.0">
        <route edges="w_t t_n n_t t_w"/>
    </vehicle>
    <vehicle id="289" depart="1689.0">
        <route edges="e_t t_s"/>
    </vehicle>
    <vehicle id="290" depart="1693.0">
        <route edges="s_t t_e e_t t_s"/>
    </vehicle>
    <vehicle id="291" depart="1693.0">
        <route edges="e_t t_s"/>
    </vehicle>
    <vehicle id="292" depart="1695.0">
        <route edges="e_t t_s s_t t_e"/>
    </vehicle>
    <vehicle id="293" depart="1699.0">
        <route edges="s_t t_e e_t t_s"/>
    </vehicle>
    <vehicle id="294" depart="1700.0">
        <route edges="s_t t_e e_t t_s"/>
    </vehicle>
    <vehicle id="295" depart="1704.0">
        <route edges="s_t t_n"/>
    </vehicle>
    <vehicle id="296" depart="1705.0">
        <route edges="e_t t_w"/>
    </vehicle>
    <vehicle id="297" depart="1716.0">
        <route edges="w_t t_n n_t t_w"/>
    </vehicle>
    <vehicle id="298" depart="1717.0">
        <route edges="s_t t_e"/>
    </vehicle>
    <vehicle id="299" depart="1717.0">
        <route edges="e_t t_s s_t t_e"/>
    </vehicle>
    <vehicle id="300" depart="1721.0">
        <route edges="s_t t_e e_t t_s"/>
    </vehicle>
    <vehicle id="301" depart="1722.0">
        <route edges="e_t t_w"/>
    </vehicle>
    <vehicle id="302" depart="1724.0">
        <route edges="w_t t_n n_t t_w"/>
    </vehicle>
    <vehicle id="303" depart="1731.0">
        <route edges="n_t t_e e_t t_n"/>
    </vehicle>
    <vehicle id="304" depart="1738.0">
        <route edges="e_t t_w"/>
    </vehicle>
    <vehicle id="305" depart="1739.0">
        <route edges="s_t t_n"/>
    </vehicle>
    <vehicle id="306" depart="1745.0">
        <route edges="w_t t_s"/>
    </vehicle>
    <vehicle id="307" depart="1745.0">
        <route edges="n_t t_e e_t t_n"/>
    </vehicle>
    <vehicle id="308" depart="1747.0">
        <route edges="s_t t_n"/>
    </vehicle>
    <vehicle id="309" depart="1750.0">
        <route edges="s_t t_e"/>
    </vehicle>
    <vehicle id="310" depart="1757.0">
        <route edges="s_t t_n"/>
    </vehicle>
    <vehicle id="311" depart="1763.0">
        <route edges="w_t t_e"/>
    </vehicle>
    <vehicle id="312" depart="1772.0">
        <route edges="n_t t_s"/>
    </vehicle>
    <vehicle id="313" depart="1773.0">
        <route edges="n_t t_s"/>
    </vehicle>
    <vehicle id="314" depart="1776.0">
        <route edges="w_t t_e"/>
    </vehicle>
    <vehicle id="315" depart="1778.0">
        <route edges="w_t t_s"/>
    </vehicle>
    <vehicle id="316" depart="1781.0">
        <route edges="w_t t_n"/>
    </vehicle>
    <vehicle id="317" depart="1782.0">
        <route edges="n_t t_e e_t t_n"/>
    </vehicle>
    <vehicle id="318" depart="1783.0">
        <route edges="n_t t_e e_t t_n"/>
    </vehicle>
    <vehicle id="319" depart="1785.0">
        <route edges="e_t t_n"/>
    </vehicle>
    <vehicle id="320" depart="1788.0">
        <route edges="e_t t_n"/>
    </vehicle>
    <vehicle id="321" depart="1793.0">
        <route edges="s_t t_n"/>
    </vehicle>
    <vehicle id="322" depart="1795.0">
        <route edges="e_t t_s"/>
    </vehicle>
    <vehicle id="323" depart="1805.0">
        <route edges="w_t t_e"/>
    </vehicle>
    <vehicle id="324" depart="1812.0">
        <route edges="s_t t_e e_t t_s"/>