<?xml version="1.0" encoding="UTF-8"?>

<!-- generated on 2023-06-30 22:41:49.854929 by randomTrips.py UNKNOWN
<configuration>
    <net-file value="nets/2way-single-intersection/single-intersection.net.xml"/>
    <route-file value="training/routes/2x2_tr_ep3.rou.xml"/>
    <seed value="3"/>
    <validate value="True"/>
    <end value="500.0"/>
</configuration>
-->

<!-- generated on 2023-06-30 22:41:49 by Eclipse SUMO duarouter Version v1_17_0+1256-16eabe86c67
<configuration xmlns:xsi="http://www.w3.org/2001/XMLSchema-instance" xsi:noNamespaceSchemaLocation="http://sumo.dlr.de/xsd/duarouterConfiguration.xsd">

    <input>
        <net-file value="nets/2way-single-intersection/single-intersection.net.xml"/>
        <route-files value="trips.trips.xml"/>
    </input>

    <output>
        <output-file value="training/routes/2x2_tr_ep3.rou.xml"/>
        <alternatives-output value="NUL"/>
    </output>

    <time>
        <begin value="0"/>
        <end value="500.0"/>
    </time>

    <report>
        <no-warnings value="true"/>
        <ignore-errors value="true"/>
        <no-step-log value="true"/>
    </report>

</configuration>
-->

<routes xmlns:xsi="http://www.w3.org/2001/XMLSchema-instance" xsi:noNamespaceSchemaLocation="http://sumo.dlr.de/xsd/routes_file.xsd">
    <vehicle id="0" depart="52.0">
        <route edges="e_t t_s"/>
    </vehicle>
    <vehicle id="1" depart="107.0">
        <route edges="n_t t_s"/>
    </vehicle>
    <vehicle id="2" depart="153.0">
        <route edges="s_t t_e"/>
    </vehicle>
    <vehicle id="3" depart="174.0">
        <route edges="e_t t_w"/>
    </vehicle>
    <vehicle id="4" depart="188.0">
        <route edges="n_t t_e"/>
    </vehicle>
    <vehicle id="5" depart="198.0">
        <route edges="w_t t_n"/>
    </vehicle>
    <vehicle id="6" depart="206.0">
        <route edges="w_t t_n"/>
    </vehicle>
    <vehicle id="7" depart="211.0">
        <route edges="s_t t_e"/>
    </vehicle>
    <vehicle id="8" depart="237.0">
        <route edges="s_t t_w"/>
    </vehicle>
    <vehicle id="9" depart="241.0">
        <route edges="s_t t_e e_t t_s"/>
    </vehicle>
    <vehicle id="10" depart="269.0">
        <route edges="s_t t_e"/>
    </vehicle>
    <vehicle id="11" depart="270.0">
        <route edges="w_t t_s"/>
    </vehicle>
    <vehicle id="12" depart="288.0">
        <route edges="n_t t_e"/>
    </vehicle>
    <vehicle id="13" depart="294.0">
        <route edges="w_t t_n"/>
    </vehicle>
    <vehicle id="14" depart="306.0">
        <route edges="s_t t_w"/>
    </vehicle>
    <vehicle id="15" depart="318.0">
        <route edges="s_t t_w"/>
    </vehicle>
    <vehicle id="16" depart="319.0">
        <route edges="n_t t_w"/>
    </vehicle>
    <vehicle id="17" depart="325.0">
        <route edges="n_t t_w"/>
    </vehicle>
    <vehicle id="18" depart="333.0">
        <route edges="w_t t_e"/>
    </vehicle>
    <vehicle id="19" depart="338.0">
        <route edges="e_t t_s s_t t_e"/>
    </vehicle>
    <vehicle id="20" depart="339.0">
        <route edges="w_t t_n"/>
    </vehicle>
    <vehicle id="21" depart="363.0">
        <route edges="s_t t_n"/>
    </vehicle>
    <vehicle id="22" depart="366.0">
        <route edges="s_t t_n"/>
    </vehicle>
    <vehicle id="23" depart="366.0">
        <route edges="n_t t_s"/>
    </vehicle>
    <vehicle id="24" depart="368.0">
        <route edges="s_t t_w"/>
    </vehicle>
    <vehicle id="25" depart="384.0">
        <route edges="s_t t_w"/>
    </vehicle>
    <vehicle id="26" depart="390.0">
        <route edges="w_t t_n n_t t_w"/>
    </vehicle>
    <vehicle id="27" depart="394.0">
        <route edges="s_t t_e"/>
    </vehicle>
    <vehicle id="28" depart="413.0">
        <route edges="w_t t_n n_t t_w"/>
    </vehicle>
    <vehicle id="29" depart="414.0">
        <route edges="w_t t_s"/>
    </vehicle>
    <vehicle id="30" depart="417.0">
        <route edges="s_t t_e"/>
    </vehicle>
    <vehicle id="31" depart="420.0">
        <route edges="w_t t_s"/>
    </vehicle>
    <vehicle id="32" depart="453.0">
        <route edges="n_t t_e"/>
    </vehicle>
    <vehicle id="33" depart="460.0">
        <route edges="w_t t_n n_t t_w"/>
    </vehicle>
    <vehicle id="34" depart="463.0">
        <route edges="e_t t_w"/>
    </vehicle>
    <vehicle id="35" depart="475.0">
        <route edges="n_t t_e"/>
    </vehicle>
    <vehicle id="36" depart="479.0">
        <route edges="n_t t_w"/>
    </vehicle>
    <vehicle id="37" depart="492.0">
        <route edges="w_t t_e"/>
    </vehicle>
    <vehicle id="38" depart="507.0">
        <route edges="s_t t_e"/>
    </vehicle>
    <vehicle id="39" depart="512.0">
        <route edges="s_t t_n"/>
    </vehicle>
    <vehicle id="40" depart="513.0">
        <route edges="w_t t_n n_t t_w"/>
    </vehicle>
    <vehicle id="41" depart="524.0">
        <route edges="s_t t_w"/>
    </vehicle>
    <vehicle id="42" depart="531.0">
        <route edges="n_t t_e"/>
    </vehicle>
    <vehicle id="43" depart="532.0">
        <route edges="s_t t_e"/>
    </vehicle>
    <vehicle id="44" depart="538.0">
        <route edges="e_t t_n"/>
    </vehicle>
    <vehicle id="45" depart="550.0">
        <route edges="s_t t_e"/>
    </vehicle>
    <vehicle id="46" depart="550.0">
        <route edges="e_t t_w"/>
    </vehicle>
    <vehicle id="47" depart="557.0">
        <route edges="n_t t_w"/>
    </vehicle>
    <vehicle id="48" depart="558.0">
        <route edges="w_t t_n"/>
    </vehicle>
    <vehicle id="49" depart="575.0">
        <route edges="n_t t_s"/>
    </vehicle>
    <vehicle id="50" depart="602.0">
        <route edges="s_t t_e e_t t_s"/>
    </vehicle>
    <vehicle id="51" depart="613.0">
        <route edges="s_t t_e e_t t_s"/>
    </vehicle>
    <vehicle id="52" depart="626.0">
        <route edges="w_t t_s"/>
    </vehicle>
    <vehicle id="53" depart="635.0">
        <route edges="n_t t_s"/>
    </vehicle>
    <vehicle id="54" depart="640.0">
        <route edges="e_t t_n"/>
    </vehicle>
    <vehicle id="55" depart="647.0">
        <route edges="w_t t_s"/>
    </vehicle>
    <vehicle id="56" depart="650.0">
        <route edges="s_t t_e"/>
    </vehicle>
    <vehicle id="57" depart="650.0">
        <route edges="n_t t_s"/>
    </vehicle>
    <vehicle id="58" depart="656.0">
        <route edges="e_t t_s"/>
    </vehicle>
    <vehicle id="59" depart="676.0">
        <route edges="s_t t_e"/>
    </vehicle>
    <vehicle id="60" depart="685.0">
        <route edges="s_t t_n"/>
    </vehicle>
    <vehicle id="61" depart="686.0">
        <route edges="s_t t_n"/>
    </vehicle>
    <vehicle id="62" depart="686.0">
        <route edges="s_t t_e e_t t_s"/>
    </vehicle>
    <vehicle id="63" depart="687.0">
        <route edges="e_t t_s s_t t_e"/>
    </vehicle>
    <vehicle id="64" depart="688.0">
        <route edges="s_t t_w"/>
    </vehicle>
    <vehicle id="65" depart="694.0">
        <route edges="n_t t_e e_t t_n"/>
    </vehicle>
    <vehicle id="66" depart="698.0">
        <route edges="s_t t_n"/>
    </vehicle>
    <vehicle id="67" depart="719.0">
        <route edges="n_t t_e e_t t_n"/>
    </vehicle>
    <vehicle id="68" depart="719.0">
        <route edges="n_t t_s"/>
    </vehicle>
    <vehicle id="69" depart="721.0">
        <route edges="n_t t_e e_t t_n"/>
    </vehicle>
    <vehicle id="70" depart="726.0">
        <route edges="w_t t_e"/>
    </vehicle>
    <vehicle id="71" depart="727.0">
        <route edges="s_t t_e e_t t_s"/>
    </vehicle>
    <vehicle id="72" depart="732.0">
        <route edges="n_t t_e"/>
    </vehicle>
    <vehicle id="73" depart="733.0">
        <route edges="w_t t_e"/>
    </vehicle>
    <vehicle id="74" depart="742.0">
        <route edges="e_t t_n"/>
    </vehicle>
    <vehicle id="75" depart="761.0">
        <route edges="s_t t_e"/>
    </vehicle>
    <vehicle id="76" depart="763.0">
        <route edges="n_t t_e e_t t_n"/>
    </vehicle>
    <vehicle id="77" depart="766.0">
        <route edges="w_t t_n"/>
    </vehicle>
    <vehicle id="78" depart="767.0">
        <route edges="w_t t_e"/>
    </vehicle>
    <vehicle id="79" depart="768.0">
        <route edges="n_t t_s"/>
    </vehicle>
    <vehicle id="80" depart="778.0">
        <route edges="w_t t_n"/>
    </vehicle>
    <vehicle id="81" depart="786.0">
        <route edges="e_t t_s s_t t_e"/>
    </vehicle>
    <vehicle id="82" depart="798.0">
        <route edges="s_t t_e"/>
    </vehicle>
    <vehicle id="83" depart="803.0">
        <route edges="w_t t_n n_t t_w"/>
    </vehicle>
    <vehicle id="84" depart="807.0">
        <route edges="e_t t_n"/>
    </vehicle>
    <vehicle id="85" depart="823.0">
        <route edges="w_t t_s"/>
    </vehicle>
    <vehicle id="86" depart="827.0">
        <route edges="w_t t_n"/>
    </vehicle>
    <vehicle id="87" depart="829.0">
        <route edges="e_t t_n"/>
    </vehicle>
    <vehicle id="88" depart="829.0">
        <route edges="w_t t_n"/>
    </vehicle>
    <vehicle id="89" depart="835.0">
        <route edges="n_t t_e e_t t_n"/>
    </vehicle>
    <vehicle id="90" depart="835.0">
        <route edges="n_t t_e e_t t_n"/>
    </vehicle>
    <vehicle id="91" depart="842.0">
        <route edges="w_t t_e"/>
    </vehicle>
    <vehicle id="92" depart="846.0">
        <route edges="e_t t_w"/>
    </vehicle>
    <vehicle id="93" depart="857.0">
        <route edges="w_t t_n n_t t_w"/>
    </vehicle>
    <vehicle id="94" depart="858.0">
        <route edges="n_t t_w"/>
    </vehicle>
    <vehicle id="95" depart="858.0">
        <route edges="w_t t_e"/>
    </vehicle>
    <vehicle id="96" depart="859.0">
        <route edges="s_t t_w"/>
    </vehicle>
    <vehicle id="97" depart="866.0">
        <route edges="s_t t_e e_t t_s"/>
    </vehicle>
    <vehicle id="98" depart="866.0">
        <route edges="n_t t_e e_t t_n"/>
    </vehicle>
    <vehicle id="99" depart="875.0">
        <route edges="e_t t_s s_t t_e"/>
    </vehicle>
    <vehicle id="100" depart="876.0">
        <route edges="s_t t_n"/>
    </vehicle>
    <vehicle id="101" depart="878.0">
        <route edges="w_t t_e"/>
    </vehicle>
    <vehicle id="102" depart="879.0">
        <route edges="w_t t_s"/>
    </vehicle>
    <vehicle id="103" depart="886.0">
        <route edges="w_t t_n n_t t_w"/>
    </vehicle>
    <vehicle id="104" depart="889.0">
        <route edges="w_t t_s"/>
    </vehicle>
    <vehicle id="105" depart="892.0">
        <route edges="e_t t_s"/>
    </vehicle>
    <vehicle id="106" depart="896.0">
        <route edges="e_t t_n"/>
    </vehicle>
    <vehicle id="107" depart="901.0">
        <route edges="s_t t_e e_t t_s"/>
    </vehicle>
    <vehicle id="108" depart="903.0">
        <route edges="n_t t_w"/>
    </vehicle>
    <vehicle id="109" depart="903.0">
        <route edges="s_t t_n"/>
    </vehicle>
    <vehicle id="110" depart="907.0">
        <route edges="n_t t_w"/>
    </vehicle>
    <vehicle id="111" depart="913.0">
        <route edges="n_t t_w"/>
    </vehicle>
    <vehicle id="112" depart="916.0">
        <route edges="n_t t_e"/>
    </vehicle>
    <vehicle id="113" depart="917.0">
        <route edges="s_t t_w"/>
    </vehicle>
    <vehicle id="114" depart="919.0">
        <route edges="e_t t_w"/>
    </vehicle>
    <vehicle id="115" depart="923.0">
        <route edges="w_t t_n n_t t_w"/>
    </vehicle>
    <vehicle id="116" depart="929.0">
        <route edges="w_t t_e"/>
    </vehicle>
    <vehicle id="117" depart="939.0">
        <route edges="s_t t_w"/>
    </vehicle>
    <vehicle id="118" depart="945.0">
        <route edges="e_t t_n"/>
    </vehicle>
    <vehicle id="119" depart="956.0">
        <route edges="n_t t_s"/>
    </vehicle>
    <vehicle id="120" depart="957.0">
        <route edges="n_t t_e e_t t_n"/>
    </vehicle>
    <vehicle id="121" depart="959.0">
        <route edges="w_t t_e"/>
    </vehicle>
    <vehicle id="122" depart="962.0">
        <route edges="e_t t_s s_t t_e"/>
    </vehicle>
    <vehicle id="123" depart="967.0">
        <route edges="e_t t_s s_t t_e"/>
    </vehicle>
    <vehicle id="124" depart="973.0">
        <route edges="w_t t_n n_t t_w"/>
    </vehicle>
    <vehicle id="125" depart="986.0">
        <route edges="e_t t_s"/>
    </vehicle>
    <vehicle id="126" depart="992.0">
        <route edges="n_t t_e e_t t_n"/>
    </vehicle>
    <vehicle id="127" depart="999.0">
        <route edges="n_t t_s"/>
    </vehicle>
    <vehicle id="128" depart="1002.0">
        <route edges="s_t t_n"/>
    </vehicle>
    <vehicle id="129" depart="1002.0">
        <route edges="e_t t_n"/>
    </vehicle>
    <vehicle id="130" depart="1003.0">
        <route edges="e_t t_s"/>
    </vehicle>
    <vehicle id="131" depart="1004.0">
        <route edges="s_t t_n"/>
    </vehicle>
    <vehicle id="132" depart="1010.0">
        <route edges="e_t t_s s_t t_e"/>
    </vehicle>
    <vehicle id="133" depart="1014.0">
        <route edges="n_t t_s"/>
    </vehicle>
    <vehicle id="134" depart="1015.0">
        <route edges="w_t t_n"/>
    </vehicle>
    <vehicle id="135" depart="1019.0">
        <route edges="w_t t_s"/>
    </vehicle>
    <vehicle id="136" depart="1020.0">
        <route edges="n_t t_e e_t t_n"/>
    </vehicle>
    <vehicle id="137" depart="1024.0">
        <route edges="n_t t_s"/>
    </vehicle>
    <vehicle id="138" depart="1024.0">
        <route edges="n_t t_s"/>
    </vehicle>
    <vehicle id="139" depart="1030.0">
        <route edges="n_t t_e"/>
    </vehicle>
    <vehicle id="140" depart="1035.0">
        <route edges="s_t t_e e_t t_s"/>
    </vehicle>
    <vehicle id="141" depart="1035.0">
        <route edges="e_t t_n"/>
    </vehicle>
    <vehicle id="142" depart="1040.0">
        <route edges="n_t t_w"/>
    </vehicle>
    <vehicle id="143" depart="1043.0">
        <route edges="w_t t_n"/>
    </vehicle>
    <vehicle id="144" depart="1049.0">
        <route edges="w_t t_n n_t t_w"/>
    </vehicle>
    <vehicle id="145" depart="1056.0">
        <route edges="n_t t_e e_t t_n"/>
    </vehicle>
    <vehicle id="146" depart="1059.0">
        <route edges="e_t t_w"/>
    </vehicle>
    <vehicle id="147" depart="1060.0">
        <route edges="s_t t_w"/>
    </vehicle>
    <vehicle id="148" depart="1063.0">
        <route edges="w_t t_s"/>
    </vehicle>
    <vehicle id="149" depart="1079.0">
        <route edges="s_t t_e e_t t_s"/>
    </vehicle>
    <vehicle id="150" depart="1081.0">
        <route edges="e_t t_s"/>
    </vehicle>
    <vehicle id="151" depart="1084.0">
        <route edges="e_t t_s s_t t_e"/>
    </vehicle>
    <vehicle id="152" depart="1087.0">
        <route edges="w_t t_e"/>
    </vehicle>
    <vehicle id="153" depart="1087.0">
        <route edges="e_t t_s s_t t_e"/>
    </vehicle>
    <vehicle id="154" depart="1104.0">
        <route edges="w_t t_e"/>
    </vehicle>
    <vehicle id="155" depart="1105.0">
        <route edges="e_t t_w"/>
    </vehicle>
    <vehicle id="156" depart="1106.0">
        <route edges="e_t t_w"/>
    </vehicle>
    <vehicle id="157" depart="1108.0">
        <route edges="s_t t_w"/>
    </vehicle>
    <vehicle id="158" depart="1116.0">
        <route edges="w_t t_s"/>
    </vehicle>
    <vehicle id="159" depart="1121.0">
        <route edges="w_t t_e"/>
    </vehicle>
    <vehicle id="160" depart="1134.0">
        <route edges="w_t t_s"/>
    </vehicle>
    <vehicle id="161" depart="1137.0">
        <route edges="s_t t_e"/>
    </vehicle>
    <vehicle id="162" depart="1138.0">
        <route edges="s_t t_w"/>
    </vehicle>
    <vehicle id="163" depart="1143.0">
        <route edges="e_t t_n"/>
    </vehicle>
    <vehicle id="164" depart="1146.0">
        <route edges="s_t t_w"/>
    </vehicle>
    <vehicle id="165" depart="1155.0">
        <route edges="e_t t_s s_t t_e"/>
    </vehicle>
    <vehicle id="166" depart="1161.0">
        <route edges="e_t t_s"/>
    </vehicle>
    <vehicle id="167" depart="1167.0">
        <route edges="w_t t_n"/>
    </vehicle>
    <vehicle id="168" depart="1167.0">
        <route edges="n_t t_e e_t t_n"/>
    </vehicle>
    <vehicle id="169" depart="1170.0">
        <route edges="n_t t_e e_t t_n"/>
    </vehicle>
    <vehicle id="170" depart="1179.0">
        <route edges="e_t t_s"/>
    </vehicle>
    <vehicle id="171" depart="1183.0">
        <route edges="w_t t_n"/>
    </vehicle>
    <vehicle id="172" depart="1184.0">
        <route edges="s_t t_e"/>
    </vehicle>
    <vehicle id="173" depart="1187.0">
        <route edges="s_t t_w"/>
    </vehicle>
    <vehicle id="174" depart="1193.0">
        <route edges="s_t t_e e_t t_s"/>
    </vehicle>
    <vehicle id="175" depart="1195.0">
        <route edges="n_t t_s"/>
    </vehicle>
    <vehicle id="176" depart="1195.0">
        <route edges="w_t t_e"/>
    </vehicle>
    <vehicle id="177" depart="1196.0">
        <route edges="e_t t_s"/>
    </vehicle>
    <vehicle id="178" depart="1198.0">
        <route edges="w_t t_s"/>
    </vehicle>
    <vehicle id="179" depart="1198.0">
        <route edges="n_t t_s"/>
    </vehicle>
    <vehicle id="180" depart="1202.0">
        <route edges="e_t t_n"/>
    </vehicle>
    <vehicle id="181" depart="1207.0">
        <route edges="e_t t_s"/>
    </vehicle>
    <vehicle id="182" depart="1218.0">
        <route edges="n_t t_e"/>
    </vehicle>
    <vehicle id="183" depart="1224.0">
        <route edges="s_t t_w"/>
    </vehicle>
    <vehicle id="184" depart="1229.0">
        <route edges="n_t t_s"/>
    </vehicle>
    <vehicle id="185" depart="1232.0">
        <route edges="n_t t_w"/>
    </vehicle>
    <vehicle id="186" depart="1236.0">
        <route edges="s_t t_n"/>
    </vehicle>
    <vehicle id="187" depart="1244.0">
        <route edges="e_t t_s s_t t_e"/>
    </vehicle>
    <vehicle id="188" depart="1245.0">
        <route edges="n_t t_e e_t t_n"/>
    </vehicle>
    <vehicle id="189" depart="1248.0">
        <route edges="e_t t_n"/>
    </vehicle>
    <vehicle id="190" depart="1254.0">
        <route edges="n_t t_w"/>
    </vehicle>
    <vehicle id="191" depart="1261.0">
        <route edges="e_t t_w"/>
    </vehicle>
    <vehicle id="192" depart="1264.0">
        <route edges="n_t t_s"/>
    </vehicle>
    <vehicle id="193" depart="1265.0">
        <route edges="n_t t_w"/>
    </vehicle>
    <vehicle id="194" depart="1275.0">
        <route edges="w_t t_s"/>
    </vehicle>
    <vehicle id="195" depart="1276.0">
        <route edges="n_t t_s"/>
    </vehicle>
    <vehicle id="196" depart="1279.0">
        <route edges="w_t t_n"/>
    </vehicle>
    <vehicle id="197" depart="1281.0">
        <route edges="s_t t_w"/>
    </vehicle>
    <vehicle id="198" depart="1283.0">
        <route edges="n_t t_e"/>
    </vehicle>
    <vehicle id="199" depart="1285.0">
        <route edges="e_t t_s"/>
    </vehicle>
    <vehicle id="200" depart="1289.0">
        <route edges="s_t t_w"/>
    </vehicle>
    <vehicle id="201" depart="1290.0">
        <route edges="w_t t_e"/>
    </vehicle>
    <vehicle id="202" depart="1292.0">
        <route edges="e_t t_n"/>
    </vehicle>
    <vehicle id="203" depart="1293.0">
        <route edges="e_t t_s"/>
    </vehicle>
    <vehicle id="204" depart="1299.0">
        <route edges="w_t t_n n_t t_w"/>
    </vehicle>
    <vehicle id="205" depart="1299.0">
        <route edges="n_t t_w"/>
    </vehicle>
    <vehicle id="206" depart="1301.0">
        <route edges="n_t t_e e_t t_n"/>
    </vehicle>
    <vehicle id="207" depart="1303.0">
        <route edges="s_t t_e"/>
    </vehicle>
    <vehicle id="208" depart="1306.0">
        <route edges="e_t t_w"/>
    </vehicle>
    <vehicle id="209" depart="1307.0">
        <route edges="n_t t_e e_t t_n"/>
    </vehicle>
    <vehicle id="210" depart="1310.0">
        <route edges="s_t t_e e_t t_s"/>
    </vehicle>
    <vehicle id="211" depart="1310.0">
        <route edges="e_t t_n"/>
    </vehicle>
    <vehicle id="212" depart="1313.0">
        <route edges="n_t t_e e_t t_n"/>
    </vehicle>
    <vehicle id="213" depart="1314.0">
        <route edges="e_t t_s"/>
    </vehicle>
    <vehicle id="214" depart="1317.0">
        <route edges="w_t t_n"/>
    </vehicle>
    <vehicle id="215" depart="1318.0">
        <route edges="s_t t_e"/>
    </vehicle>
    <vehicle id="216" depart="1328.0">
        <route edges="n_t t_s"/>
    </vehicle>
    <vehicle id="217" depart="1333.0">
        <route edges="e_t t_w"/>
    </vehicle>
    <vehicle id="218" depart="1344.0">
        <route edges="w_t t_e"/>
    </vehicle>
    <vehicle id="219" depart="1345.0">
        <route edges="w_t t_n"/>
    </vehicle>
    <vehicle id="220" depart="1346.0">
        <route edges="w_t t_n n_t t_w"/>
    </vehicle>
    <vehicle id="221" depart="1352.0">
        <route edges="n_t t_s"/>
    </vehicle>
    <vehicle id="222" depart="1352.0">
        <route edges="s_t t_w"/>
    </vehicle>
    <vehicle id="223" depart="1362.0">
        <route edges="n_t t_w"/>
    </vehicle>
    <vehicle id="224" depart="1364.0">
        <route edges="w_t t_s"/>
    </vehicle>
    <vehicle id="225" depart="1373.0">
        <route edges="s_t t_e"/>
    </vehicle>
    <vehicle id="226" depart="1373.0">
        <route edges="n_t t_e e_t t_n"/>
    </vehicle>
    <vehicle id="227" depart="1374.0">
        <route edges="s_t t_e e_t t_s"/>
    </vehicle>
    <vehicle id="228" depart="1381.0">
        <route edges="s_t t_e"/>
    </vehicle>
    <vehicle id="229" depart="1382.0">
        <route edges="s_t t_e e_t t_s"/>
    </vehicle>
    <vehicle id="230" depart="1388.0">
        <route edges="e_t t_w"/>
    </vehicle>
    <vehicle id="231" depart="1389.0">
        <route edges="s_t t_e"/>
    </vehicle>
    <vehicle id="232" depart="1392.0">
        <route edges="w_t t_e"/>
    </vehicle>
    <vehicle id="233" depart="1393.0">
        <route edges="n_t t_s"/>
    </vehicle>
    <vehicle id="234" depart="1394.0">
        <route edges="s_t t_e e_t t_s"/>
    </vehicle>
    <vehicle id="235" depart="1413.0">
        <route edges="s_t t_n"/>
    </vehicle>
    <vehicle id="236" depart="1414.0">
        <route edges="n_t t_e"/>
    </vehicle>
    <vehicle id="237" depart="1429.0">
        <route edges="e_t t_s"/>
    </vehicle>
    <vehicle id="238" depart="1431.0">
        <route edges="w_t t_s"/>
    </vehicle>
    <vehicle id="239" depart="1432.0">
        <route edges="s_t t_n"/>
    </vehicle>
    <vehicle id="240" depart="1434.0">
        <route edges="n_t t_e e_t t_n"/>
    </vehicle>
    <vehicle id="241" depart="1445.0">
        <route edges="w_t t_e"/>
    </vehicle>
    <vehicle id="242" depart="1446.0">
        <route edges="s_t t_e"/>
    </vehicle>
    <vehicle id="243" depart="1449.0">
        <route edges="w_t t_n"/>
    </vehicle>
    <vehicle id="244" depart="1463.0">
        <route edges="n_t t_e e_t t_n"/>
    </vehicle>
    <vehicle id="245" depart="1485.0">
        <route edges="s_t t_w"/>
    </vehicle>
    <vehicle id="246" depart="1486.0">
        <route edges="n_t t_w"/>
    </vehicle>
    <vehicle id="247" depart="1487.0">
        <route edges="e_t t_n"/>
    </vehicle>
    <vehicle id="248" depart="1487.0">
        <route edges="e_t t_s s_t t_e"/>
    </vehicle>
    <vehicle id="249" depart="1492.0">
        <route edges="w_t t_s"/>
    </vehicle>
    <vehicle id="250" depart="1493.0">
        <route edges="e_t t_s s_t t_e"/>
    </vehicle>
    <vehicle id="251" depart="1494.0">
        <route edges="n_t t_s"/>
    </vehicle>
    <vehicle id="252" depart="1508.0">
        <route edges="w_t t_s"/>
    </vehicle>
    <vehicle id="253" depart="1509.0">
        <route edges="s_t t_e"/>
    </vehicle>
    <vehicle id="254" depart="1510.0">
        <route edges="n_t t_e"/>
    </vehicle>
    <vehicle id="255" depart="1511.0">
        <route edges="s_t t_e e_t t_s"/>
    </vehicle>
    <vehicle id="256" depart="1543.0">
        <route edges="e_t t_n"/>
    </vehicle>
    <vehicle id="257" depart="1547.0">
        <route edges="w_t t_e"/>
    </vehicle>
    <vehicle id="258" depart="1551.0">
        <route edges="w_t t_n n_t t_w"/>
    </vehicle>
    <vehicle id="259" depart="1552.0">
        <route edges="w_t t_n"/>
    </vehicle>
    <vehicle id="260" depart="1553.0">
        <route edges="s_t t_e e_t t_s"/>
    </vehicle>
    <vehicle id="261" depart="1560.0">
        <route edges="s_t t_w"/>
    </vehicle>
    <vehicle id="262" depart="1561.0">
        <route edges="s_t t_n"/>
    </vehicle>
    <vehicle id="263" depart="1564.0">
        <route edges="w_t t_n"/>
    </vehicle>
    <vehicle id="264" depart="1564.0">
        <route edges="s_t t_e e_t t_s"/>
    </vehicle>
    <vehicle id="265" depart="1565.0">
        <route edges="e_t t_w"/>
    </vehicle>
    <vehicle id="266" depart="1574.0">
        <route edges="s_t t_n"/>
    </vehicle>
    <vehicle id="267" depart="1582.0">
        <route edges="s_t t_n"/>
    </vehicle>
    <vehicle id="268" depart="1584.0">
        <route edges="e_t t_s"/>
    </vehicle>
    <vehicle id="269" depart="1587.0">
        <route edges="e_t t_s"/>
    </vehicle>
    <vehicle id="270" depart="1588.0">
        <route edges="s_t t_n"/>
    </vehicle>
    <vehicle id="271" depart="1588.0">
        <route edges="s_t t_w"/>
    </vehicle>
    <vehicle id="272" depart="1593.0">
        <route edges="w_t t_e"/>
    </vehicle>
    <vehicle id="273" depart="1596.0">
        <route edges="w_t t_s"/>
    </vehicle>
    <vehicle id="274" depart="1597.0">
        <route edges="e_t t_n"/>
    </vehicle>
    <vehicle id="275" depart="1603.0">
        <route edges="e_t t_s s_t t_e"/>
    </vehicle>
    <vehicle id="276" depart="1608.0">
        <route edges="s_t t_w"/>
    </vehicle>
    <vehicle id="277" depart="1609.0">
        <route edges="n_t t_w"/>
    </vehicle>
    <vehicle id="278" depart="1610.0">
        <route edges="s_t t_e"/>
    </vehicle>
    <vehicle id="279" depart="1614.0">
        <route edges="w_t t_s"/>
    </vehicle>
    <vehicle id="280" depart="1626.0">
        <route edges="w_t t_s"/>
    </vehicle>
    <vehicle id="281" depart="1630.0">
        <route edges="s_t t_n"/>
    </vehicle>
    <vehicle id="282" depart="1631.0">
        <route edges="w_t t_n n_t t_w"/>
    </vehicle>
    <vehicle id="283" depart="1633.0">
        <route edges="w_t t_n"/>
    </vehicle>
    <vehicle id="284" depart="1640.0">
        <route edges="w_t t_n"/>
    </vehicle>
    <vehicle id="285" depart="1640.0">
        <route edges="e_t t_s s_t t_e"/>
    </vehicle>
    <vehicle id="286" depart="1648.0">
        <route edges="e_t t_s s_t t_e"/>
    </vehicle>
    <vehicle id="287" depart="1648.0">
        <route edges="e_t t_n"/>
    </vehicle>
    <vehicle id="288" depart="1653.0">
        <route edges="s_t t_e e_t t_s"/>
    </vehicle>
    <vehicle id="289" depart="1658.0">
        <route edges="n_t t_s"/>
    </vehicle>
    <vehicle id="290" depart="1663.0">
        <route edges="n_t t_e e_t t_n"/>
    </vehicle>
    <vehicle id="291" depart="1670.0">
        <route edges="w_t t_n"/>
    </vehicle>
    <vehicle id="292" depart="1671.0">
        <route edges="e_t t_w"/>
    </vehicle>
    <vehicle id="293" depart="1681.0">
        <route edges="s_t t_n"/>
    </vehicle>
    <vehicle id="294" depart="1682.0">
        <route edges="n_t t_s"/>
    </vehicle>
    <vehicle id="295" depart="1684.0">
        <route edges="s_t t_e"/>
    </vehicle>
    <vehicle id="296" depart="1685.0">
        <route edges="e_t t_s s_t t_e"/>
    </vehicle>
    <vehicle id="297" depart="1685.0">
        <route edges="w_t t_e"/>
    </vehicle>
    <vehicle id="298" depart="1688.0">
        <route edges="n_t t_e"/>
    </vehicle>
    <vehicle id="299" depart="1692.0">
        <route edges="e_t t_s s_t t_e"/>
    </vehicle>
    <vehicle id="300" depart="1694.0">
        <route edges="n_t t_e"/>
    </vehicle>
    <vehicle id="301" depart="1706.0">
        <route edges="e_t t_s s_t t_e"/>
    </vehicle>
    <vehicle id="302" depart="1714.0">
        <route edges="e_t t_n"/>
    </vehicle>
    <vehicle id="303" depart="1717.0">
        <route edges="e_t t_s s_t t_e"/>
    </vehicle>
    <vehicle id="304" depart="1719.0">
        <route edges="n_t t_e e_t t_n"/>
    </vehicle>
    <vehicle id="305" depart="1731.0">
        <route edges="s_t t_e"/>
    </vehicle>
    <vehicle id="306" depart="1741.0">
        <route edges="n_t t_e e_t t_n"/>
    </vehicle>
    <vehicle id="307" depart="1749.0">
        <route edges="e_t t_w"/>
    </vehicle>
    <vehicle id="308" depart="1750.0">
        <route edges="e_t t_s s_t t_e"/>
    </vehicle>
    <vehicle id="309" depart="1752.0">
        <route edges="n_t t_e"/>
    </vehicle>
    <vehicle id="310" depart="1757.0">
        <route edges="s_t t_n"/>
    </vehicle>
    <vehicle id="311" depart="1757.0">
        <route edges="e_t t_s s_t t_e"/>
    </vehicle>
    <vehicle id="312" depart="1759.0">
        <route edges="s_t t_n"/>
    </vehicle>
    <vehicle id="313" depart="1759.0">
        <route edges="w_t t_n"/>
    </vehicle>
    <vehicle id="314" depart="1765.0">
        <route edges="w_t t_n"/>
    </vehicle>
    <vehicle id="315" depart="1770.0">
        <route edges="e_t t_n"/>
    </vehicle>
    <vehicle id="316" depart="1776.0">
        <route edges="w_t t_s"/>
    </vehicle>
    <vehicle id="317" depart="1794.0">
        <route edges="n_t t_e"/>
    </vehicle>
    <vehicle id="318" depart="1797.0">
        <route edges="s_t t_w"/>
    </vehicle>
    <vehicle id="319" depart="1800.0">
        <route edges="s_t t_e"/>
    </vehicle>
    <vehicle id="320" depart="1813.0">
        <route edges="e_t t_s s_t t_e"/>
    </vehicle>
    <vehicle id="321" depart="1816.0">
        <route edges="e_t t_s s_t t_e"/>
    </vehicle>
    <vehicle id="322" depart="1817.0">
        <route edges="e_t t_s"/>
    </vehicle>
    <vehicle id="323" depart="1819.0">
        <route edges="w_t t_e"/>
    </vehicle>
    <vehicle id="324" depart="1830.0">
        <route edges="w_t t_n"/>
    </vehicle>
    <vehicle id="325" depart="1830.0">