<?xml version="1.0" encoding="UTF-8"?>

<!-- generated on 2023-07-03 22:29:02.987377 by randomTrips.py UNKNOWN
<configuration>
    <net-file value="nets/2way-single-intersection/single-intersection.net.xml"/>
    <route-file value="training/routes/2x2_tr_ep0.rou.xml"/>
    <seed value="0"/>
    <validate value="True"/>
    <end value="500.0"/>
</configuration>
-->

<!-- generated on 2023-07-03 22:29:02 by Eclipse SUMO duarouter Version v1_17_0+1256-16eabe86c67
<configuration xmlns:xsi="http://www.w3.org/2001/XMLSchema-instance" xsi:noNamespaceSchemaLocation="http://sumo.dlr.de/xsd/duarouterConfiguration.xsd">

    <input>
        <net-file value="nets/2way-single-intersection/single-intersection.net.xml"/>
        <route-files value="trips.trips.xml"/>
    </input>

    <output>
        <output-file value="training/routes/2x2_tr_ep0.rou.xml"/>
        <alternatives-output value="NUL"/>
    </output>

    <time>
        <begin value="0"/>
        <end value="500.0"/>
    </time>

    <report>
        <no-warnings value="true"/>
        <ignore-errors value="true"/>
        <no-step-log value="true"/>
    </report>

</configuration>
-->

<routes xmlns:xsi="http://www.w3.org/2001/XMLSchema-instance" xsi:noNamespaceSchemaLocation="http://sumo.dlr.de/xsd/routes_file.xsd">
    <vehicle id="0" depart="108.0">
        <route edges="w_t t_n n_t t_w"/>
    </vehicle>
    <vehicle id="1" depart="127.0">
        <route edges="n_t t_e e_t t_n"/>
    </vehicle>
    <vehicle id="2" depart="130.0">
        <route edges="s_t t_n"/>
    </vehicle>
    <vehicle id="3" depart="139.0">
        <route edges="w_t t_n"/>
    </vehicle>
    <vehicle id="4" depart="139.0">
        <route edges="n_t t_s"/>
    </vehicle>
    <vehicle id="5" depart="144.0">
        <route edges="w_t t_s"/>
    </vehicle>
    <vehicle id="6" depart="170.0">
        <route edges="n_t t_w"/>
    </vehicle>
    <vehicle id="7" depart="192.0">
        <route edges="s_t t_n"/>
    </vehicle>
    <vehicle id="8" depart="202.0">
        <route edges="w_t t_n n_t t_w"/>
    </vehicle>
    <vehicle id="9" depart="203.0">
        <route edges="w_t t_n n_t t_w"/>
    </vehicle>
    <vehicle id="10" depart="224.0">
        <route edges="n_t t_s"/>
    </vehicle>
    <vehicle id="11" depart="225.0">
        <route edges="w_t t_s"/>
    </vehicle>
    <vehicle id="12" depart="226.0">
        <route edges="n_t t_e"/>
    </vehicle>
    <vehicle id="13" depart="286.0">
        <route edges="n_t t_s"/>
    </vehicle>
    <vehicle id="14" depart="293.0">
        <route edges="w_t t_n n_t t_w"/>
    </vehicle>
    <vehicle id="15" depart="307.0">
        <route edges="n_t t_w"/>
    </vehicle>
    <vehicle id="16" depart="313.0">
        <route edges="n_t t_w"/>
    </vehicle>
    <vehicle id="17" depart="325.0">
        <route edges="s_t t_e"/>
    </vehicle>
    <vehicle id="18" depart="332.0">
        <route edges="s_t t_n"/>
    </vehicle>
    <vehicle id="19" depart="341.0">
        <route edges="w_t t_s"/>
    </vehicle>
    <vehicle id="20" depart="345.0">
        <route edges="e_t t_n"/>
    </vehicle>
    <vehicle id="21" depart="366.0">
        <route edges="w_t t_e"/>
    </vehicle>
    <vehicle id="22" depart="367.0">
        <route edges="n_t t_w"/>
    </vehicle>
    <vehicle id="23" depart="368.0">
        <route edges="e_t t_s"/>
    </vehicle>
    <vehicle id="24" depart="375.0">
        <route edges="e_t t_w"/>
    </vehicle>
    <vehicle id="25" depart="392.0">
        <route edges="w_t t_n"/>
    </vehicle>
    <vehicle id="26" depart="398.0">
        <route edges="e_t t_n"/>
    </vehicle>
    <vehicle id="27" depart="405.0">
        <route edges="s_t t_w"/>
    </vehicle>
    <vehicle id="28" depart="407.0">
        <route edges="e_t t_s"/>
    </vehicle>
    <vehicle id="29" depart="425.0">
        <route edges="s_t t_e e_t t_s"/>
    </vehicle>
    <vehicle id="30" depart="425.0">
        <route edges="w_t t_s"/>
    </vehicle>
    <vehicle id="31" depart="427.0">
        <route edges="w_t t_s"/>
    </vehicle>
    <vehicle id="32" depart="440.0">
        <route edges="s_t t_n"/>
    </vehicle>
    <vehicle id="33" depart="445.0">
        <route edges="s_t t_n"/>
    </vehicle>
    <vehicle id="34" depart="450.0">
        <route edges="s_t t_n"/>
    </vehicle>
    <vehicle id="35" depart="460.0">
        <route edges="e_t t_s s_t t_e"/>
    </vehicle>
    <vehicle id="36" depart="467.0">
        <route edges="s_t t_e e_t t_s"/>
    </vehicle>
    <vehicle id="37" depart="473.0">
        <route edges="n_t t_e"/>
    </vehicle>
    <vehicle id="38" depart="475.0">
        <route edges="w_t t_n n_t t_w"/>
    </vehicle>
    <vehicle id="39" depart="494.0">
        <route edges="w_t t_n n_t t_w"/>
    </vehicle>
    <vehicle id="40" depart="495.0">
        <route edges="w_t t_n n_t t_w"/>
    </vehicle>
    <vehicle id="41" depart="505.0">
        <route edges="s_t t_n"/>
    </vehicle>
    <vehicle id="42" depart="531.0">
        <route edges="s_t t_n"/>
    </vehicle>
    <vehicle id="43" depart="534.0">
        <route edges="w_t t_n n_t t_w"/>
    </vehicle>
    <vehicle id="44" depart="564.0">
        <route edges="w_t t_s"/>
    </vehicle>
    <vehicle id="45" depart="568.0">
        <route edges="w_t t_s"/>
    </vehicle>
    <vehicle id="46" depart="578.0">
        <route edges="n_t t_s"/>
    </vehicle>
    <vehicle id="47" depart="583.0">
        <route edges="w_t t_n n_t t_w"/>
    </vehicle>
    <vehicle id="48" depart="584.0">
        <route edges="w_t t_e"/>
    </vehicle>
    <vehicle id="49" depart="595.0">
        <route edges="s_t t_n"/>
    </vehicle>
    <vehicle id="50" depart="604.0">
        <route edges="s_t t_w"/>
    </vehicle>
    <vehicle id="51" depart="607.0">
        <route edges="e_t t_s"/>
    </vehicle>
    <vehicle id="52" depart="612.0">
        <route edges="e_t t_s s_t t_e"/>
    </vehicle>
    <vehicle id="53" depart="613.0">
        <route edges="w_t t_n"/>
    </vehicle>
    <vehicle id="54" depart="613.0">
        <route edges="w_t t_e"/>
    </vehicle>
    <vehicle id="55" depart="624.0">
        <route edges="e_t t_s"/>
    </vehicle>
    <vehicle id="56" depart="625.0">
        <route edges="e_t t_s"/>
    </vehicle>
    <vehicle id="57" depart="628.0">
        <route edges="w_t t_s"/>
    </vehicle>
    <vehicle id="58" depart="631.0">
        <route edges="s_t t_e"/>
    </vehicle>
    <vehicle id="59" depart="634.0">
        <route edges="s_t t_e e_t t_s"/>
    </vehicle>
    <vehicle id="60" depart="634.0">
        <route edges="s_t t_n"/>
    </vehicle>
    <vehicle id="61" depart="635.0">
        <route edges="n_t t_w"/>
    </vehicle>
    <vehicle id="62" depart="641.0">
        <route edges="e_t t_s s_t t_e"/>
    </vehicle>
    <vehicle id="63" depart="645.0">
        <route edges="w_t t_e"/>
    </vehicle>
    <vehicle id="64" depart="646.0">
        <route edges="e_t t_s s_t t_e"/>
    </vehicle>
    <vehicle id="65" depart="649.0">
        <route edges="w_t t_n n_t t_w"/>
    </vehicle>
    <vehicle id="66" depart="659.0">
        <route edges="e_t t_n"/>
    </vehicle>
    <vehicle id="67" depart="659.0">
        <route edges="e_t t_n"/>
    </vehicle>
    <vehicle id="68" depart="659.0">
        <route edges="e_t t_s"/>
    </vehicle>
    <vehicle id="69" depart="659.0">
        <route edges="n_t t_e"/>
    </vehicle>
    <vehicle id="70" depart="663.0">
        <route edges="s_t t_e"/>
    </vehicle>
    <vehicle id="71" depart="668.0">
        <route edges="e_t t_w"/>
    </vehicle>
    <vehicle id="72" depart="681.0">
        <route edges="e_t t_n"/>
    </vehicle>
    <vehicle id="73" depart="689.0">
        <route edges="s_t t_w"/>
    </vehicle>
    <vehicle id="74" depart="696.0">
        <route edges="w_t t_e"/>
    </vehicle>
    <vehicle id="75" depart="705.0">
        <route edges="s_t t_w"/>
    </vehicle>
    <vehicle id="76" depart="706.0">
        <route edges="e_t t_s"/>
    </vehicle>
    <vehicle id="77" depart="706.0">
        <route edges="w_t t_n"/>
    </vehicle>
    <vehicle id="78" depart="709.0">
        <route edges="n_t t_s"/>
    </vehicle>
    <vehicle id="79" depart="710.0">
        <route edges="n_t t_e"/>
    </vehicle>
    <vehicle id="80" depart="722.0">
        <route edges="n_t t_e e_t t_n"/>
    </vehicle>
    <vehicle id="81" depart="723.0">
        <route edges="s_t t_e e_t t_s"/>
    </vehicle>
    <vehicle id="82" depart="725.0">
        <route edges="n_t t_e e_t t_n"/>
    </vehicle>
    <vehicle id="83" depart="734.0">
        <route edges="w_t t_n"/>
    </vehicle>
    <vehicle id="84" depart="738.0">
        <route edges="s_t t_e"/>
    </vehicle>
    <vehicle id="85" depart="739.0">
        <route edges="s_t t_n"/>
    </vehicle>
    <vehicle id="86" depart="739.0">
        <route edges="e_t t_n"/>
    </vehicle>
    <vehicle id="87" depart="745.0">
        <route edges="e_t t_w"/>
    </vehicle>
    <vehicle id="88" depart="745.0">
        <route edges="n_t t_e e_t t_n"/>
    </vehicle>
    <vehicle id="89" depart="751.0">
        <route edges="n_t t_w"/>
    </vehicle>
    <vehicle id="90" depart="762.0">
        <route edges="s_t t_e e_t t_s"/>
    </vehicle>
    <vehicle id="91" depart="774.0">
        <route edges="s_t t_n"/>
    </vehicle>
    <vehicle id="92" depart="777.0">
        <route edges="n_t t_s"/>
    </vehicle>
    <vehicle id="93" depart="778.0">
        <route edges="e_t t_s s_t t_e"/>
    </vehicle>
    <vehicle id="94" depart="781.0">
        <route edges="n_t t_e"/>
    </vehicle>
    <vehicle id="95" depart="783.0">
        <route edges="s_t t_n"/>
    </vehicle>
    <vehicle id="96" depart="791.0">
        <route edges="w_t t_s"/>
    </vehicle>
    <vehicle id="97" depart="801.0">
        <route edges="n_t t_e e_t t_n"/>
    </vehicle>
    <vehicle id="98" depart="802.0">
        <route edges="s_t t_n"/>
    </vehicle>
    <vehicle id="99" depart="820.0">
        <route edges="s_t t_e"/>
    </vehicle>
    <vehicle id="100" depart="821.0">
        <route edges="n_t t_e e_t t_n"/>
    </vehicle>
    <vehicle id="101" depart="823.0">
        <route edges="e_t t_s"/>
    </vehicle>
    <vehicle id="102" depart="826.0">
        <route edges="n_t t_s"/>
    </vehicle>
    <vehicle id="103" depart="835.0">
        <route edges="w_t t_n n_t t_w"/>
    </vehicle>
    <vehicle id="104" depart="839.0">
        <route edges="n_t t_e e_t t_n"/>
    </vehicle>
    <vehicle id="105" depart="840.0">
        <route edges="n_t t_w"/>
    </vehicle>
    <vehicle id="106" depart="849.0">
        <route edges="w_t t_n n_t t_w"/>
    </vehicle>
    <vehicle id="107" depart="849.0">
        <route edges="e_t t_w"/>
    </vehicle>
    <vehicle id="108" depart="863.0">
        <route edges="s_t t_e"/>
    </vehicle>
    <vehicle id="109" depart="863.0">
        <route edges="s_t t_w"/>
    </vehicle>
    <vehicle id="110" depart="877.0">
        <route edges="n_t t_s"/>
    </vehicle>
    <vehicle id="111" depart="884.0">
        <route edges="n_t t_e"/>
    </vehicle>
    <vehicle id="112" depart="887.0">
        <route edges="s_t t_e"/>
    </vehicle>
    <vehicle id="113" depart="893.0">
        <route edges="w_t t_s"/>
    </vehicle>
    <vehicle id="114" depart="897.0">
        <route edges="e_t t_s s_t t_e"/>
    </vehicle>
    <vehicle id="115" depart="907.0">
        <route edges="s_t t_w"/>
    </vehicle>
    <vehicle id="116" depart="909.0">
        <route edges="n_t t_w"/>
    </vehicle>
    <vehicle id="117" depart="914.0">
        <route edges="e_t t_w"/>
    </vehicle>
    <vehicle id="118" depart="921.0">
        <route edges="n_t t_e"/>
    </vehicle>
    <vehicle id="119" depart="924.0">
        <route edges="n_t t_e e_t t_n"/>
    </vehicle>
    <vehicle id="120" depart="927.0">
        <route edges="w_t t_n n_t t_w"/>
    </vehicle>
    <vehicle id="121" depart="928.0">
        <route edges="e_t t_s"/>
    </vehicle>
    <vehicle id="122" depart="943.0">
        <route edges="s_t t_n"/>
    </vehicle>
    <vehicle id="123" depart="946.0">
        <route edges="w_t t_n"/>
    </vehicle>
    <vehicle id="124" depart="949.0">
        <route edges="e_t t_s s_t t_e"/>
    </vehicle>
    <vehicle id="125" depart="953.0">
        <route edges="s_t t_e e_t t_s"/>
    </vehicle>
    <vehicle id="126" depart="956.0">
        <route edges="w_t t_n n_t t_w"/>
    </vehicle>
    <vehicle id="127" depart="958.0">
        <route edges="w_t t_e"/>
    </vehicle>
    <vehicle id="128" depart="963.0">
        <route edges="s_t t_e e_t t_s"/>
    </vehicle>
    <vehicle id="129" depart="964.0">
        <route edges="s_t t_e e_t t_s"/>
    </vehicle>
    <vehicle id="130" depart="977.0">
        <route edges="w_t t_s"/>
    </vehicle>
    <vehicle id="131" depart="980.0">
        <route edges="n_t t_s"/>
    </vehicle>
    <vehicle id="132" depart="989.0">
        <route edges="e_t t_s"/>
    </vehicle>
    <vehicle id="133" depart="990.0">
        <route edges="e_t t_s s_t t_e"/>
    </vehicle>
    <vehicle id="134" depart="995.0">
        <route edges="n_t t_w"/>
    </vehicle>
    <vehicle id="135" depart="995.0">
        <route edges="s_t t_n"/>
    </vehicle>
    <vehicle id="136" depart="999.0">
        <route edges="s_t t_e"/>
    </vehicle>
    <vehicle id="137" depart="1004.0">
        <route edges="e_t t_w"/>
    </vehicle>
    <vehicle id="138" depart="1005.0">
        <route edges="n_t t_e e_t t_n"/>
    </vehicle>
    <vehicle id="139" depart="1007.0">
        <route edges="s_t t_n"/>
    </vehicle>
    <vehicle id="140" depart="1013.0">
        <route edges="n_t t_e"/>
    </vehicle>
    <vehicle id="141" depart="1031.0">
        <route edges="e_t t_s s_t t_e"/>
    </vehicle>
    <vehicle id="142" depart="1031.0">
        <route edges="s_t t_e"/>
    </vehicle>
    <vehicle id="143" depart="1032.0">
        <route edges="n_t t_e e_t t_n"/>
    </vehicle>
    <vehicle id="144" depart="1032.0">
        <route edges="n_t t_e"/>
    </vehicle>
    <vehicle id="145" depart="1033.0">
        <route edges="w_t t_n"/>
    </vehicle>
    <vehicle id="146" depart="1034.0">
        <route edges="w_t t_n n_t t_w"/>
    </vehicle>
    <vehicle id="147" depart="1039.0">
        <route edges="n_t t_e e_t t_n"/>
    </vehicle>
    <vehicle id="148" depart="1041.0">
        <route edges="s_t t_n"/>
    </vehicle>
    <vehicle id="149" depart="1050.0">
        <route edges="n_t t_s"/>
    </vehicle>
    <vehicle id="150" depart="1050.0">
        <route edges="w_t t_n n_t t_w"/>
    </vehicle>
    <vehicle id="151" depart="1059.0">
        <route edges="s_t t_n"/>
    </vehicle>
    <vehicle id="152" depart="1060.0">
        <route edges="w_t t_s"/>
    </vehicle>
    <vehicle id="153" depart="1060.0">
        <route edges="e_t t_s s_t t_e"/>
    </vehicle>
    <vehicle id="154" depart="1069.0">
        <route edges="s_t t_e"/>
    </vehicle>
    <vehicle id="155" depart="1079.0">
        <route edges="e_t t_n"/>
    </vehicle>
    <vehicle id="156" depart="1082.0">
        <route edges="s_t t_n"/>
    </vehicle>
    <vehicle id="157" depart="1085.0">
        <route edges="n_t t_s"/>
    </vehicle>
    <vehicle id="158" depart="1085.0">
        <route edges="s_t t_n"/>
    </vehicle>
    <vehicle id="159" depart="1088.0">
        <route edges="n_t t_w"/>
    </vehicle>
    <vehicle id="160" depart="1089.0">
        <route edges="n_t t_w"/>
    </vehicle>
    <vehicle id="161" depart="1098.0">
        <route edges="n_t t_e e_t t_n"/>
    </vehicle>
    <vehicle id="162" depart="1106.0">
        <route edges="e_t t_w"/>
    </vehicle>
    <vehicle id="163" depart="1107.0">
        <route edges="s_t t_w"/>
    </vehicle>
    <vehicle id="164" depart="1112.0">
        <route edges="n_t t_s"/>
    </vehicle>
    <vehicle id="165" depart="1116.0">
        <route edges="e_t t_n"/>
    </vehicle>
    <vehicle id="166" depart="1121.0">
        <route edges="e_t t_s s_t t_e"/>
    </vehicle>
    <vehicle id="167" depart="1137.0">
        <route edges="w_t t_e"/>
    </vehicle>
    <vehicle id="168" depart="1146.0">
        <route edges="e_t t_s s_t t_e"/>
    </vehicle>
    <vehicle id="169" depart="1148.0">
        <route edges="n_t t_s"/>
    </vehicle>
    <vehicle id="170" depart="1153.0">
        <route edges="e_t t_w"/>
    </vehicle>
    <vehicle id="171" depart="1157.0">
        <route edges="w_t t_e"/>
    </vehicle>
    <vehicle id="172" depart="1165.0">
        <route edges="n_t t_s"/>
    </vehicle>
    <vehicle id="173" depart="1167.0">
        <route edges="w_t t_n"/>
    </vehicle>
    <vehicle id="174" depart="1169.0">
        <route edges="w_t t_n"/>
    </vehicle>
    <vehicle id="175" depart="1171.0">
        <route edges="n_t t_e e_t t_n"/>
    </vehicle>
    <vehicle id="176" depart="1172.0">
        <route edges="s_t t_e"/>
    </vehicle>
    <vehicle id="177" depart="1177.0">
        <route edges="s_t t_e"/>
    </vehicle>
    <vehicle id="178" depart="1180.0">
        <route edges="n_t t_w"/>
    </vehicle>
    <vehicle id="179" depart="1194.0">
        <route edges="w_t t_n n_t t_w"/>
    </vehicle>
    <vehicle id="180" depart="1198.0">
        <route edges="e_t t_s s_t t_e"/>
    </vehicle>
    <vehicle id="181" depart="1201.0">
        <route edges="n_t t_w"/>
    </vehicle>
    <vehicle id="182" depart="1207.0">
        <route edges="w_t t_s"/>
    </vehicle>
    <vehicle id="183" depart="1217.0">
        <route edges="s_t t_w"/>
    </vehicle>
    <vehicle id="184" depart="1217.0">
        <route edges="e_t t_s s_t t_e"/>
    </vehicle>
    <vehicle id="185" depart="1217.0">
        <route edges="w_t t_e"/>
    </vehicle>
    <vehicle id="186" depart="1221.0">
        <route edges="e_t t_s s_t t_e"/>
    </vehicle>
    <vehicle id="187" depart="1230.0">
        <route edges="e_t t_w"/>
    </vehicle>
    <vehicle id="188" depart="1232.0">
        <route edges="n_t t_e"/>
    </vehicle>
    <vehicle id="189" depart="1233.0">
        <route edges="e_t t_s"/>
    </vehicle>
    <vehicle id="190" depart="1240.0">
        <route edges="w_t t_s"/>
    </vehicle>
    <vehicle id="191" depart="1247.0">
        <route edges="w_t t_s"/>
    </vehicle>
    <vehicle id="192" depart="1251.0">
        <route edges="s_t t_e e_t t_s"/>
    </vehicle>
    <vehicle id="193" depart="1268.0">
        <route edges="w_t t_n n_t t_w"/>
    </vehicle>
    <vehicle id="194" depart="1275.0">
        <route edges="w_t t_s"/>
    </vehicle>
    <vehicle id="195" depart="1276.0">
        <route edges="w_t t_e"/>
    </vehicle>
    <vehicle id="196" depart="1277.0">
        <route edges="s_t t_e e_t t_s"/>
    </vehicle>
    <vehicle id="197" depart="1280.0">
        <route edges="w_t t_n"/>
    </vehicle>
    <vehicle id="198" depart="1283.0">
        <route edges="w_t t_n"/>
    </vehicle>
    <vehicle id="199" depart="1298.0">
        <route edges="s_t t_w"/>
    </vehicle>
    <vehicle id="200" depart="1299.0">
        <route edges="w_t t_s"/>
    </vehicle>
    <vehicle id="201" depart="1305.0">
        <route edges="e_t t_s s_t t_e"/>
    </vehicle>
    <vehicle id="202" depart="1310.0">
        <route edges="s_t t_n"/>
    </vehicle>
    <vehicle id="203" depart="1310.0">
        <route edges="e_t t_w"/>
    </vehicle>
    <vehicle id="204" depart="1319.0">
        <route edges="w_t t_n"/>
    </vehicle>
    <vehicle id="205" depart="1320.0">
        <route edges="n_t t_w"/>
    </vehicle>
    <vehicle id="206" depart="1324.0">
        <route edges="e_t t_s"/>
    </vehicle>
    <vehicle id="207" depart="1326.0">
        <route edges="e_t t_n"/>
    </vehicle>
    <vehicle id="208" depart="1329.0">
        <route edges="w_t t_e"/>
    </vehicle>
    <vehicle id="209" depart="1347.0">
        <route edges="e_t t_n"/>
    </vehicle>
    <vehicle id="210" depart="1349.0">
        <route edges="n_t t_w"/>
    </vehicle>
    <vehicle id="211" depart="1352.0">
        <route edges="s_t t_e e_t t_s"/>
    </vehicle>
    <vehicle id="212" depart="1356.0">
        <route edges="e_t t_w"/>
    </vehicle>
    <vehicle id="213" depart="1362.0">
        <route edges="n_t t_s"/>
    </vehicle>
    <vehicle id="214" depart="1363.0">
        <route edges="n_t t_e"/>
    </vehicle>
    <vehicle id="215" depart="1367.0">
        <route edges="n_t t_e"/>
    </vehicle>
    <vehicle id="216" depart="1372.0">
        <route edges="e_t t_s"/>
    </vehicle>
    <vehicle id="217" depart="1373.0">
        <route edges="s_t t_e"/>
    </vehicle>
    <vehicle id="218" depart="1399.0">
        <route edges="s_t t_n"/>
    </vehicle>
    <vehicle id="219" depart="1402.0">
        <route edges="n_t t_w"/>
    </vehicle>
    <vehicle id="220" depart="1410.0">
        <route edges="n_t t_w"/>
    </vehicle>
    <vehicle id="221" depart="1412.0">
        <route edges="s_t t_n"/>
    </vehicle>
    <vehicle id="222" depart="1413.0">
        <route edges="s_t t_n"/>
    </vehicle>
    <vehicle id="223" depart="1416.0">
        <route edges="e_t t_s"/>
    </vehicle>
    <vehicle id="224" depart="1426.0">
        <route edges="s_t t_w"/>
    </vehicle>
    <vehicle id="225" depart="1430.0">
        <route edges="e_t t_w"/>
    </vehicle>
    <vehicle id="226" depart="1434.0">
        <route edges="w_t t_n n_t t_w"/>
    </vehicle>
    <vehicle id="227" depart="1441.0">
        <route edges="w_t t_s"/>
    </vehicle>
    <vehicle id="228" depart="1443.0">
        <route edges="w_t t_s"/>
    </vehicle>
    <vehicle id="229" depart="1449.0">
        <route edges="w_t t_e"/>
    </vehicle>
    <vehicle id="230" depart="1449.0">
        <route edges="w_t t_n"/>
    </vehicle>
    <vehicle id="231" depart="1452.0">
        <route edges="w_t t_n"/>
    </vehicle>
    <vehicle id="232" depart="1454.0">
        <route edges="w_t t_e"/>
    </vehicle>
    <vehicle id="233" depart="1457.0">
        <route edges="e_t t_w"/>
    </vehicle>
    <vehicle id="234" depart="1465.0">
        <route edges="n_t t_w"/>
    </vehicle>
    <vehicle id="235" depart="1471.0">
        <route edges="w_t t_s"/>
    </vehicle>
    <vehicle id="236" depart="1479.0">
        <route edges="s_t t_e"/>
    </vehicle>
    <vehicle id="237" depart="1486.0">
        <route edges="e_t t_w"/>
    </vehicle>
    <vehicle id="238" depart="1491.0">
        <route edges="w_t t_n n_t t_w"/>
    </vehicle>
    <vehicle id="239" depart="1492.0">
        <route edges="s_t t_n"/>
    </vehicle>
    <vehicle id="240" depart="1498.0">
        <route edges="n_t t_e"/>
    </vehicle>
    <vehicle id="241" depart="1498.0">
        <route edges="n_t t_s"/>
    </vehicle>
    <vehicle id="242" depart="1500.0">
        <route edges="w_t t_n n_t t_w"/>
    </vehicle>
    <vehicle id="243" depart="1504.0">
        <route edges="n_t t_e"/>
    </vehicle>
    <vehicle id="244" depart="1509.0">
        <route edges="w_t t_s"/>
    </vehicle>
    <vehicle id="245" depart="1512.0">
        <route edges="e_t t_n"/>
    </vehicle>
    <vehicle id="246" depart="1515.0">
        <route edges="s_t t_e"/>
    </vehicle>
    <vehicle id="247" depart="1527.0">
        <route edges="w_t t_n n_t t_w"/>
    </vehicle>
    <vehicle id="248" depart="1528.0">
        <route edges="s_t t_e"/>
    </vehicle>
    <vehicle id="249" depart="1537.0">
        <route edges="e_t t_n"/>
    </vehicle>
    <vehicle id="250" depart="1550.0">
        <route edges="e_t t_n"/>
    </vehicle>
    <vehicle id="251" depart="1552.0">
        <route edges="e_t t_w"/>
    </vehicle>
    <vehicle id="252" depart="1553.0">
        <route edges="w_t t_e"/>
    </vehicle>
    <vehicle id="253" depart="1554.0">
        <route edges="w_t t_e"/>
    </vehicle>
    <vehicle id="254" depart="1555.0">
        <route edges="e_t t_s"/>
    </vehicle>
    <vehicle id="255" depart="1589.0">
        <route edges="w_t t_e"/>
    </vehicle>
    <vehicle id="256" depart="1591.0">
        <route edges="e_t t_n"/>
    </vehicle>
    <vehicle id="257" depart="1596.0">
        <route edges="e_t t_s"/>
    </vehicle>
    <vehicle id="258" depart="1600.0">
        <route edges="w_t t_e"/>
    </vehicle>
    <vehicle id="259" depart="1601.0">
        <route edges="e_t t_n"/>
    </vehicle>
    <vehicle id="260" depart="1603.0">
        <route edges="w_t t_e"/>
    </vehicle>
    <vehicle id="261" depart="1607.0">
        <route edges="w_t t_n"/>
    </vehicle>
    <vehicle id="262" depart="1612.0">
        <route edges="n_t t_e e_t t_n"/>
    </vehicle>
    <vehicle id="263" depart="1623.0">
        <route edges="w_t t_n n_t t_w"/>
    </vehicle>
    <vehicle id="264" depart="1624.0">
        <route edges="s_t t_e"/>
    </vehicle>
    <vehicle id="265" depart="1631.0">
        <route edges="w_t t_e"/>
    </vehicle>
    <vehicle id="266" depart="1633.0">
        <route edges="s_t t_e"/>
    </vehicle>
    <vehicle id="267" depart="1642.0">
        <route edges="w_t t_n n_t t_w"/>
    </vehicle>
    <vehicle id="268" depart="1644.0">
        <route edges="w_t t_n"/>
    </vehicle>
    <vehicle id="269" depart="1649.0">
        <route edges="e_t t_w"/>
    </vehicle>
    <vehicle id="270" depart="1658.0">
        <route edges="n_t t_e e_t t_n"/>
    </vehicle>
    <vehicle id="271" depart="1666.0">
        <route edges="e_t t_s s_t t_e"/>
    </vehicle>
    <vehicle id="272" depart="1669.0">
        <route edges="e_t t_s s_t t_e"/>
    </vehicle>
    <vehicle id="273" depart="1669.0">
        <route edges="e_t t_n"/>
    </vehicle>
    <vehicle id="274" depart="1673.0">
        <route edges="s_t t_e e_t t_s"/>
    </vehicle>
    <vehicle id="275" depart="1684.0">
        <route edges="e_t t_n"/>
    </vehicle>
    <vehicle id="276" depart="1684.0">
        <route edges="s_t t_e"/>
    </vehicle>
    <vehicle id="277" depart="1688.0">
        <route edges="n_t t_e e_t t_n"/>
    </vehicle>
    <vehicle id="278" depart="1689.0">
        <route edges="w_t t_e"/>
    </vehicle>
    <vehicle id="279" depart="1690.0">
        <route edges="n_t t_e e_t t_n"/>
    </vehicle>
    <vehicle id="280" depart="1700.0">
        <route edges="s_t t_n"/>
    </vehicle>
    <vehicle id="281" depart="1702.0">
        <route edges="e_t t_n"/>
    </vehicle>
    <vehicle id="282" depart="1705.0">
        <route edges="n_t t_w"/>
    </vehicle>
    <vehicle id="283" depart="1710.0">
        <route edges="w_t t_n"/>
    </vehicle>
    <vehicle id="284" depart="1711.0">
        <route edges="s_t t_e e_t t_s"/>
    </vehicle>
    <vehicle id="285" depart="1711.0">
        <route edges="w_t t_n"/>
    </vehicle>
    <vehicle id="286" depart="1711.0">
        <route edges="n_t t_w"/>
    </vehicle>
    <vehicle id="287" depart="1713.0">
        <route edges="n_t t_e"/>
    </vehicle>
    <vehicle id="288" depart="1716.0">
        <route edges="n_t t_w"/>
    </vehicle>
    <vehicle id="289" depart="1725.0">
        <route edges="e_t t_n"/>
    </vehicle>
    <vehicle id="290" depart="1743.0">
        <route edges="s_t t_n"/>
    </vehicle>
    <vehicle id="291" depart="1743.0">
        <route edges="e_t t_s s_t t_e"/>
    </vehicle>
    <vehicle id="292" depart="1744.0">
        <route edges="s_t t_e e_t t_s"/>
    </vehicle>
    <vehicle id="293" depart="1747.0">
        <route edges="e_t t_n"/>
    </vehicle>
    <vehicle id="294" depart="1752.0">
        <route edges="w_t t_s"/>
    </vehicle>
    <vehicle id="295" depart="1761.0">
        <route edges="s_t t_e"/>
    </vehicle>
    <vehicle id="296" depart="1763.0">
        <route edges="s_t t_n"/>
    </vehicle>
    <vehicle id="297" depart="1769.0">
        <route edges="s_t t_w"/>
    </vehicle>
    <vehicle id="298" depart="1776.0">
        <route edges="e_t t_w"/>
    </vehicle>
    <vehicle id="299" depart="1781.0">
        <route edges="n_t t_w"/>
    </vehicle>
    <vehicle id="300" depart="1781.0">
        <route edges="e_t t_w"/>
    </vehicle>
    <vehicle id="301" depart="1786.0">
        <route edges="e_t t_n"/>
    </vehicle>
    <vehicle id="302" depart="1788.0">
        <route edges="s_t t_e e_t t_s"/>
    </vehicle>
    <vehicle id="303" depart="1794.0">
        <route edges="n_t t_e"/>
    </vehicle>
    <vehicle id="304" depart="1796.0">
        <route edges="n_t t_e e_t t_n"/>
    </vehicle>
    <vehicle id="305" depart="1800.0">
        <route edges="w_t t_n n_t t_w"/>
    </vehicle>
    <vehicle id="306" depart="1809.0">
        <route edges="s_t t_e"/>
    </vehicle>
    <vehicle id="307" depart="1809.0">
        <route edges="w_t t_n"/>
    </vehicle>
    <vehicle id="308" depart="1809.0">
        <route edges="n_t t_s"/>
    </vehicle>
    <vehicle id="309" depart="1811.0">
        <route edges="e_t t_w"/>
    </vehicle>
    <vehicle id="310" depart="1815.0">
        <route edges="e_t t_n"/>
    </vehicle>
    <vehicle id="311" depart="1819.0">
        <route edges="n_t t_s"/>
    </vehicle>
    <vehicle id="312" depart="1821.0">
        <route edges="s_t t_e e_t t_s"/>
    </vehicle>
    <vehicle id="313" depart="1822.0">
        <route edges="s_t t_n"/>
    </vehicle>
    <vehicle id="314" depart="1823.0">
        <route edges="s_t t_n"/>
    </vehicle>
    <vehicle id="315" depart="1830.0">
        <route edges="w_t t_n n_t t_w"/>
    </vehicle>
    <vehicle id="316" depart="1830.0">
        <route edges="n_t t_e e_t t_n"/>
    </vehicle>
    <vehicle id="317" depart="1835.0">
        <route edges="s_t t_e"/>
    </vehicle>
    <vehicle id="318" depart="1841.0">
        <route edges="s_t t_n"/>
    </vehicle>
    <vehicle id="319" depart="1843.0">
        <route edges="s_t t_e"/>
    </vehicle>
    <vehicle id="320" depart="1846.0">
        <route edges="s_t t_n"/>
    </vehicle>
    <vehicle id="321" depart="1846.0">
        <route edges="n_t t_e e_t t_n"/>
    </vehicle>
    <vehicle id="322" depart="1847.0">
        <route edges="n_t t_s"/>
    </vehicle>
    <vehicle id="323" depart="1848.0">
        <route edges="n_t t_s"/>
    </vehicle>
    <vehicle id="324" depart="1852.0">
        <route edges="e_t t_n"/>
    </vehicle>