<?xml version="1.0" encoding="UTF-8"?>

<!-- generated on 2023-06-30 22:41:11.811673 by randomTrips.py UNKNOWN
<configuration>
    <net-file value="nets/2way-single-intersection/single-intersection.net.xml"/>
    <route-file value="training/routes/2x2_tr_ep1.rou.xml"/>
    <seed value="1"/>
    <validate value="True"/>
    <end value="500.0"/>
</configuration>
-->

<!-- generated on 2023-06-30 22:41:11 by Eclipse SUMO duarouter Version v1_17_0+1256-16eabe86c67
<configuration xmlns:xsi="http://www.w3.org/2001/XMLSchema-instance" xsi:noNamespaceSchemaLocation="http://sumo.dlr.de/xsd/duarouterConfiguration.xsd">

    <input>
        <net-file value="nets/2way-single-intersection/single-intersection.net.xml"/>
        <route-files value="trips.trips.xml"/>
    </input>

    <output>
        <output-file value="training/routes/2x2_tr_ep1.rou.xml"/>
        <alternatives-output value="NUL"/>
    </output>

    <time>
        <begin value="0"/>
        <end value="500.0"/>
    </time>

    <report>
        <no-warnings value="true"/>
        <ignore-errors value="true"/>
        <no-step-log value="true"/>
    </report>

</configuration>
-->

<routes xmlns:xsi="http://www.w3.org/2001/XMLSchema-instance" xsi:noNamespaceSchemaLocation="http://sumo.dlr.de/xsd/routes_file.xsd">
    <vehicle id="0" depart="52.0">
        <route edges="e_t t_w"/>
    </vehicle>
    <vehicle id="1" depart="54.0">
        <route edges="w_t t_n"/>
    </vehicle>
    <vehicle id="2" depart="73.0">
        <route edges="n_t t_e e_t t_n"/>
    </vehicle>
    <vehicle id="3" depart="138.0">
        <route edges="s_t t_w"/>
    </vehicle>
    <vehicle id="4" depart="139.0">
        <route edges="e_t t_s s_t t_e"/>
    </vehicle>
    <vehicle id="5" depart="160.0">
        <route edges="w_t t_n"/>
    </vehicle>
    <vehicle id="6" depart="161.0">
        <route edges="w_t t_e"/>
    </vehicle>
    <vehicle id="7" depart="166.0">
        <route edges="n_t t_s"/>
    </vehicle>
    <vehicle id="8" depart="170.0">
        <route edges="e_t t_w"/>
    </vehicle>
    <vehicle id="9" depart="184.0">
        <route edges="w_t t_e"/>
    </vehicle>
    <vehicle id="10" depart="184.0">
        <route edges="e_t t_s"/>
    </vehicle>
    <vehicle id="11" depart="219.0">
        <route edges="w_t t_n"/>
    </vehicle>
    <vehicle id="12" depart="228.0">
        <route edges="e_t t_n"/>
    </vehicle>
    <vehicle id="13" depart="256.0">
        <route edges="e_t t_s s_t t_e"/>
    </vehicle>
    <vehicle id="14" depart="267.0">
        <route edges="n_t t_e e_t t_n"/>
    </vehicle>
    <vehicle id="15" depart="275.0">
        <route edges="e_t t_s s_t t_e"/>
    </vehicle>
    <vehicle id="16" depart="275.0">
        <route edges="e_t t_n"/>
    </vehicle>
    <vehicle id="17" depart="275.0">
        <route edges="n_t t_e"/>
    </vehicle>
    <vehicle id="18" depart="296.0">
        <route edges="w_t t_s"/>
    </vehicle>
    <vehicle id="19" depart="307.0">
        <route edges="s_t t_e"/>
    </vehicle>
    <vehicle id="20" depart="320.0">
        <route edges="w_t t_n n_t t_w"/>
    </vehicle>
    <vehicle id="21" depart="326.0">
        <route edges="e_t t_n"/>
    </vehicle>
    <vehicle id="22" depart="378.0">
        <route edges="s_t t_e e_t t_s"/>
    </vehicle>
    <vehicle id="23" depart="396.0">
        <route edges="w_t t_n"/>
    </vehicle>
    <vehicle id="24" depart="414.0">
        <route edges="w_t t_s"/>
    </vehicle>
    <vehicle id="25" depart="419.0">
        <route edges="n_t t_s"/>
    </vehicle>
    <vehicle id="26" depart="424.0">
        <route edges="w_t t_n n_t t_w"/>
    </vehicle>
    <vehicle id="27" depart="431.0">
        <route edges="s_t t_e e_t t_s"/>
    </vehicle>
    <vehicle id="28" depart="433.0">
        <route edges="e_t t_s s_t t_e"/>
    </vehicle>
    <vehicle id="29" depart="438.0">
        <route edges="w_t t_n"/>
    </vehicle>
    <vehicle id="30" depart="444.0">
        <route edges="e_t t_s"/>
    </vehicle>
    <vehicle id="31" depart="445.0">
        <route edges="s_t t_e e_t t_s"/>
    </vehicle>
    <vehicle id="32" depart="451.0">
        <route edges="n_t t_e e_t t_n"/>
    </vehicle>
    <vehicle id="33" depart="452.0">
        <route edges="s_t t_w"/>
    </vehicle>
    <vehicle id="34" depart="455.0">
        <route edges="s_t t_n"/>
    </vehicle>
    <vehicle id="35" depart="456.0">
        <route edges="n_t t_e"/>
    </vehicle>
    <vehicle id="36" depart="462.0">
        <route edges="e_t t_s"/>
    </vehicle>
    <vehicle id="37" depart="473.0">
        <route edges="w_t t_s"/>
    </vehicle>
    <vehicle id="38" depart="479.0">
        <route edges="n_t t_e"/>
    </vehicle>
    <vehicle id="39" depart="483.0">
        <route edges="s_t t_w"/>
    </vehicle>
    <vehicle id="40" depart="486.0">
        <route edges="w_t t_s"/>
    </vehicle>
    <vehicle id="41" depart="501.0">
        <route edges="w_t t_e"/>
    </vehicle>
    <vehicle id="42" depart="501.0">
        <route edges="s_t t_w"/>
    </vehicle>
    <vehicle id="43" depart="510.0">
        <route edges="s_t t_n"/>
    </vehicle>
    <vehicle id="44" depart="515.0">
        <route edges="n_t t_s"/>
    </vehicle>
    <vehicle id="45" depart="519.0">
        <route edges="w_t t_e"/>
    </vehicle>
    <vehicle id="46" depart="519.0">
        <route edges="w_t t_n n_t t_w"/>
    </vehicle>
    <vehicle id="47" depart="525.0">
        <route edges="w_t t_s"/>
    </vehicle>
    <vehicle id="48" depart="527.0">
        <route edges="w_t t_s"/>
    </vehicle>
    <vehicle id="49" depart="534.0">
        <route edges="s_t t_n"/>
    </vehicle>
    <vehicle id="50" depart="540.0">
        <route edges="e_t t_w"/>
    </vehicle>
    <vehicle id="51" depart="549.0">
        <route edges="s_t t_e"/>
    </vehicle>
    <vehicle id="52" depart="553.0">
        <route edges="s_t t_n"/>
    </vehicle>
    <vehicle id="53" depart="565.0">
        <route edges="n_t t_e e_t t_n"/>
    </vehicle>
    <vehicle id="54" depart="567.0">
        <route edges="s_t t_e e_t t_s"/>
    </vehicle>
    <vehicle id="55" depart="568.0">
        <route edges="s_t t_n"/>
    </vehicle>
    <vehicle id="56" depart="580.0">
        <route edges="e_t t_s s_t t_e"/>
    </vehicle>
    <vehicle id="57" depart="583.0">
        <route edges="e_t t_s"/>
    </vehicle>
    <vehicle id="58" depart="584.0">
        <route edges="w_t t_n n_t t_w"/>
    </vehicle>
    <vehicle id="59" depart="588.0">
        <route edges="w_t t_n n_t t_w"/>
    </vehicle>
    <vehicle id="60" depart="602.0">
        <route edges="n_t t_w"/>
    </vehicle>
    <vehicle id="61" depart="606.0">
        <route edges="s_t t_e"/>
    </vehicle>
    <vehicle id="62" depart="609.0">
        <route edges="e_t t_s s_t t_e"/>
    </vehicle>
    <vehicle id="63" depart="629.0">
        <route edges="w_t t_e"/>
    </vehicle>
    <vehicle id="64" depart="633.0">
        <route edges="e_t t_s"/>
    </vehicle>
    <vehicle id="65" depart="634.0">
        <route edges="n_t t_e"/>
    </vehicle>
    <vehicle id="66" depart="643.0">
        <route edges="e_t t_s"/>
    </vehicle>
    <vehicle id="67" depart="645.0">
        <route edges="e_t t_n"/>
    </vehicle>
    <vehicle id="68" depart="652.0">
        <route edges="s_t t_n"/>
    </vehicle>
    <vehicle id="69" depart="657.0">
        <route edges="n_t t_e e_t t_n"/>
    </vehicle>
    <vehicle id="70" depart="666.0">
        <route edges="e_t t_n"/>
    </vehicle>
    <vehicle id="71" depart="667.0">
        <route edges="n_t t_e"/>
    </vehicle>
    <vehicle id="72" depart="668.0">
        <route edges="e_t t_w"/>
    </vehicle>
    <vehicle id="73" depart="671.0">
        <route edges="s_t t_e"/>
    </vehicle>
    <vehicle id="74" depart="673.0">
        <route edges="s_t t_w"/>
    </vehicle>
    <vehicle id="75" depart="697.0">
        <route edges="e_t t_s s_t t_e"/>
    </vehicle>
    <vehicle id="76" depart="714.0">
        <route edges="e_t t_s"/>
    </vehicle>
    <vehicle id="77" depart="716.0">
        <route edges="e_t t_s"/>
    </vehicle>
    <vehicle id="78" depart="725.0">
        <route edges="s_t t_e e_t t_s"/>
    </vehicle>
    <vehicle id="79" depart="727.0">
        <route edges="e_t t_w"/>
    </vehicle>
    <vehicle id="80" depart="737.0">
        <route edges="w_t t_s"/>
    </vehicle>
    <vehicle id="81" depart="737.0">
        <route edges="e_t t_s"/>
    </vehicle>
    <vehicle id="82" depart="743.0">
        <route edges="n_t t_s"/>
    </vehicle>
    <vehicle id="83" depart="744.0">
        <route edges="n_t t_s"/>
    </vehicle>
    <vehicle id="84" depart="747.0">
        <route edges="e_t t_n"/>
    </vehicle>
    <vehicle id="85" depart="765.0">
        <route edges="w_t t_n n_t t_w"/>
    </vehicle>
    <vehicle id="86" depart="767.0">
        <route edges="n_t t_w"/>
    </vehicle>
    <vehicle id="87" depart="768.0">
        <route edges="n_t t_w"/>
    </vehicle>
    <vehicle id="88" depart="770.0">
        <route edges="s_t t_n"/>
    </vehicle>
    <vehicle id="89" depart="776.0">
        <route edges="n_t t_e"/>
    </vehicle>
    <vehicle id="90" depart="784.0">
        <route edges="w_t t_e"/>
    </vehicle>
    <vehicle id="91" depart="793.0">
        <route edges="w_t t_n n_t t_w"/>
    </vehicle>
    <vehicle id="92" depart="798.0">
        <route edges="s_t t_e"/>
    </vehicle>
    <vehicle id="93" depart="798.0">
        <route edges="w_t t_n n_t t_w"/>
    </vehicle>
    <vehicle id="94" depart="810.0">
        <route edges="s_t t_e e_t t_s"/>
    </vehicle>
    <vehicle id="95" depart="815.0">
        <route edges="n_t t_e e_t t_n"/>
    </vehicle>
    <vehicle id="96" depart="817.0">
        <route edges="e_t t_s"/>
    </vehicle>
    <vehicle id="97" depart="817.0">
        <route edges="n_t t_e"/>
    </vehicle>
    <vehicle id="98" depart="818.0">
        <route edges="e_t t_s"/>
    </vehicle>
    <vehicle id="99" depart="822.0">
        <route edges="n_t t_e e_t t_n"/>
    </vehicle>
    <vehicle id="100" depart="825.0">
        <route edges="n_t t_w"/>
    </vehicle>
    <vehicle id="101" depart="829.0">
        <route edges="w_t t_e"/>
    </vehicle>
    <vehicle id="102" depart="831.0">
        <route edges="e_t t_n"/>
    </vehicle>
    <vehicle id="103" depart="831.0">
        <route edges="w_t t_n n_t t_w"/>
    </vehicle>
    <vehicle id="104" depart="836.0">
        <route edges="n_t t_e"/>
    </vehicle>
    <vehicle id="105" depart="837.0">
        <route edges="s_t t_w"/>
    </vehicle>
    <vehicle id="106" depart="840.0">
        <route edges="w_t t_n"/>
    </vehicle>
    <vehicle id="107" depart="842.0">
        <route edges="w_t t_s"/>
    </vehicle>
    <vehicle id="108" depart="848.0">
        <route edges="n_t t_w"/>
    </vehicle>
    <vehicle id="109" depart="855.0">
        <route edges="e_t t_s"/>
    </vehicle>
    <vehicle id="110" depart="866.0">
        <route edges="e_t t_s s_t t_e"/>
    </vehicle>
    <vehicle id="111" depart="870.0">
        <route edges="w_t t_e"/>
    </vehicle>
    <vehicle id="112" depart="878.0">
        <route edges="w_t t_s"/>
    </vehicle>
    <vehicle id="113" depart="882.0">
        <route edges="w_t t_n"/>
    </vehicle>
    <vehicle id="114" depart="888.0">
        <route edges="n_t t_e e_t t_n"/>
    </vehicle>
    <vehicle id="115" depart="900.0">
        <route edges="w_t t_s"/>
    </vehicle>
    <vehicle id="116" depart="901.0">
        <route edges="w_t t_n n_t t_w"/>
    </vehicle>
    <vehicle id="117" depart="907.0">
        <route edges="e_t t_s"/>
    </vehicle>
    <vehicle id="118" depart="911.0">
        <route edges="e_t t_s s_t t_e"/>
    </vehicle>
    <vehicle id="119" depart="918.0">
        <route edges="e_t t_w"/>
    </vehicle>
    <vehicle id="120" depart="919.0">
        <route edges="w_t t_n n_t t_w"/>
    </vehicle>
    <vehicle id="121" depart="919.0">
        <route edges="n_t t_s"/>
    </vehicle>
    <vehicle id="122" depart="923.0">
        <route edges="w_t t_n"/>
    </vehicle>
    <vehicle id="123" depart="924.0">
        <route edges="s_t t_e"/>
    </vehicle>
    <vehicle id="124" depart="932.0">
        <route edges="e_t t_n"/>
    </vehicle>
    <vehicle id="125" depart="933.0">
        <route edges="w_t t_s"/>
    </vehicle>
    <vehicle id="126" depart="943.0">
        <route edges="w_t t_n"/>
    </vehicle>
    <vehicle id="127" depart="947.0">
        <route edges="n_t t_w"/>
    </vehicle>
    <vehicle id="128" depart="947.0">
        <route edges="w_t t_e"/>
    </vehicle>
    <vehicle id="129" depart="947.0">
        <route edges="s_t t_e"/>
    </vehicle>
    <vehicle id="130" depart="949.0">
        <route edges="e_t t_w"/>
    </vehicle>
    <vehicle id="131" depart="952.0">
        <route edges="e_t t_s s_t t_e"/>
    </vehicle>
    <vehicle id="132" depart="957.0">
        <route edges="w_t t_n"/>
    </vehicle>
    <vehicle id="133" depart="969.0">
        <route edges="e_t t_s s_t t_e"/>
    </vehicle>
    <vehicle id="134" depart="973.0">
        <route edges="e_t t_s"/>
    </vehicle>
    <vehicle id="135" depart="980.0">
        <route edges="e_t t_w"/>
    </vehicle>
    <vehicle id="136" depart="983.0">
        <route edges="n_t t_w"/>
    </vehicle>
    <vehicle id="137" depart="989.0">
        <route edges="w_t t_n"/>
    </vehicle>
    <vehicle id="138" depart="991.0">
        <route edges="n_t t_e e_t t_n"/>
    </vehicle>
    <vehicle id="139" depart="993.0">
        <route edges="e_t t_s"/>
    </vehicle>
    <vehicle id="140" depart="994.0">
        <route edges="e_t t_s s_t t_e"/>
    </vehicle>
    <vehicle id="141" depart="998.0">
        <route edges="w_t t_n"/>
    </vehicle>
    <vehicle id="142" depart="1008.0">
        <route edges="s_t t_n"/>
    </vehicle>
    <vehicle id="143" depart="1009.0">
        <route edges="n_t t_e"/>
    </vehicle>
    <vehicle id="144" depart="1012.0">
        <route edges="w_t t_n n_t t_w"/>
    </vehicle>
    <vehicle id="145" depart="1015.0">
        <route edges="w_t t_e"/>
    </vehicle>
    <vehicle id="146" depart="1015.0">
        <route edges="e_t t_s"/>
    </vehicle>
    <vehicle id="147" depart="1021.0">
        <route edges="w_t t_s"/>
    </vehicle>
    <vehicle id="148" depart="1023.0">
        <route edges="s_t t_e e_t t_s"/>
    </vehicle>
    <vehicle id="149" depart="1031.0">
        <route edges="n_t t_s"/>
    </vehicle>
    <vehicle id="150" depart="1034.0">
        <route edges="n_t t_e"/>
    </vehicle>
    <vehicle id="151" depart="1047.0">
        <route edges="e_t t_n"/>
    </vehicle>
    <vehicle id="152" depart="1047.0">
        <route edges="w_t t_n"/>
    </vehicle>
    <vehicle id="153" depart="1048.0">
        <route edges="s_t t_e e_t t_s"/>
    </vehicle>
    <vehicle id="154" depart="1050.0">
        <route edges="w_t t_n"/>
    </vehicle>
    <vehicle id="155" depart="1050.0">
        <route edges="n_t t_e e_t t_n"/>
    </vehicle>
    <vehicle id="156" depart="1068.0">
        <route edges="n_t t_w"/>
    </vehicle>
    <vehicle id="157" depart="1073.0">
        <route edges="w_t t_n"/>
    </vehicle>
    <vehicle id="158" depart="1073.0">
        <route edges="n_t t_s"/>
    </vehicle>
    <vehicle id="159" depart="1075.0">
        <route edges="s_t t_e e_t t_s"/>
    </vehicle>
    <vehicle id="160" depart="1076.0">
        <route edges="e_t t_s s_t t_e"/>
    </vehicle>
    <vehicle id="161" depart="1079.0">
        <route edges="e_t t_s s_t t_e"/>
    </vehicle>
    <vehicle id="162" depart="1083.0">
        <route edges="s_t t_e"/>
    </vehicle>
    <vehicle id="163" depart="1083.0">
        <route edges="e_t t_s"/>
    </vehicle>
    <vehicle id="164" depart="1109.0">
        <route edges="n_t t_w"/>
    </vehicle>
    <vehicle id="165" depart="1114.0">
        <route edges="n_t t_w"/>
    </vehicle>
    <vehicle id="166" depart="1116.0">
        <route edges="e_t t_s"/>
    </vehicle>
    <vehicle id="167" depart="1124.0">
        <route edges="w_t t_e"/>
    </vehicle>
    <vehicle id="168" depart="1125.0">
        <route edges="w_t t_e"/>
    </vehicle>
    <vehicle id="169" depart="1125.0">
        <route edges="w_t t_n n_t t_w"/>
    </vehicle>
    <vehicle id="170" depart="1127.0">
        <route edges="w_t t_n"/>
    </vehicle>
    <vehicle id="171" depart="1127.0">
        <route edges="e_t t_s"/>
    </vehicle>
    <vehicle id="172" depart="1129.0">
        <route edges="w_t t_n"/>
    </vehicle>
    <vehicle id="173" depart="1132.0">
        <route edges="w_t t_e"/>
    </vehicle>
    <vehicle id="174" depart="1134.0">
        <route edges="w_t t_e"/>
    </vehicle>
    <vehicle id="175" depart="1135.0">
        <route edges="n_t t_w"/>
    </vehicle>
    <vehicle id="176" depart="1140.0">
        <route edges="w_t t_n n_t t_w"/>
    </vehicle>
    <vehicle id="177" depart="1140.0">
        <route edges="w_t t_s"/>
    </vehicle>
    <vehicle id="178" depart="1141.0">
        <route edges="s_t t_e"/>
    </vehicle>
    <vehicle id="179" depart="1142.0">
        <route edges="n_t t_e"/>
    </vehicle>
    <vehicle id="180" depart="1148.0">
        <route edges="s_t t_e e_t t_s"/>
    </vehicle>
    <vehicle id="181" depart="1158.0">
        <route edges="n_t t_e"/>
    </vehicle>
    <vehicle id="182" depart="1160.0">
        <route edges="w_t t_n n_t t_w"/>
    </vehicle>
    <vehicle id="183" depart="1165.0">
        <route edges="s_t t_e e_t t_s"/>
    </vehicle>
    <vehicle id="184" depart="1166.0">
        <route edges="w_t t_n"/>
    </vehicle>
    <vehicle id="185" depart="1167.0">
        <route edges="n_t t_e e_t t_n"/>
    </vehicle>
    <vehicle id="186" depart="1172.0">
        <route edges="n_t t_e"/>
    </vehicle>
    <vehicle id="187" depart="1174.0">
        <route edges="s_t t_n"/>
    </vehicle>
    <vehicle id="188" depart="1193.0">
        <route edges="s_t t_e"/>
    </vehicle>
    <vehicle id="189" depart="1195.0">
        <route edges="n_t t_e"/>
    </vehicle>
    <vehicle id="190" depart="1199.0">
        <route edges="e_t t_n"/>
    </vehicle>
    <vehicle id="191" depart="1203.0">
        <route edges="w_t t_n"/>
    </vehicle>
    <vehicle id="192" depart="1207.0">
        <route edges="n_t t_s"/>
    </vehicle>
    <vehicle id="193" depart="1207.0">
        <route edges="e_t t_s s_t t_e"/>
    </vehicle>
    <vehicle id="194" depart="1208.0">
        <route edges="s_t t_e e_t t_s"/>
    </vehicle>
    <vehicle id="195" depart="1208.0">
        <route edges="s_t t_n"/>
    </vehicle>
    <vehicle id="196" depart="1210.0">
        <route edges="s_t t_e e_t t_s"/>
    </vehicle>
    <vehicle id="197" depart="1212.0">
        <route edges="e_t t_n"/>
    </vehicle>
    <vehicle id="198" depart="1219.0">
        <route edges="n_t t_e"/>
    </vehicle>
    <vehicle id="199" depart="1226.0">
        <route edges="n_t t_s"/>
    </vehicle>
    <vehicle id="200" depart="1227.0">
        <route edges="w_t t_n n_t t_w"/>
    </vehicle>
    <vehicle id="201" depart="1232.0">
        <route edges="n_t t_s"/>
    </vehicle>
    <vehicle id="202" depart="1237.0">
        <route edges="e_t t_s s_t t_e"/>
    </vehicle>
    <vehicle id="203" depart="1237.0">
        <route edges="s_t t_w"/>
    </vehicle>
    <vehicle id="204" depart="1249.0">
        <route edges="e_t t_w"/>
    </vehicle>
    <vehicle id="205" depart="1255.0">
        <route edges="w_t t_n"/>
    </vehicle>
    <vehicle id="206" depart="1258.0">
        <route edges="s_t t_w"/>
    </vehicle>
    <vehicle id="207" depart="1264.0">
        <route edges="n_t t_s"/>
    </vehicle>
    <vehicle id="208" depart="1273.0">
        <route edges="s_t t_e e_t t_s"/>
    </vehicle>
    <vehicle id="209" depart="1283.0">
        <route edges="w_t t_n n_t t_w"/>
    </vehicle>
    <vehicle id="210" depart="1285.0">
        <route edges="w_t t_s"/>
    </vehicle>
    <vehicle id="211" depart="1288.0">
        <route edges="e_t t_n"/>
    </vehicle>
    <vehicle id="212" depart="1301.0">
        <route edges="e_t t_s"/>
    </vehicle>
    <vehicle id="213" depart="1305.0">
        <route edges="w_t t_e"/>
    </vehicle>
    <vehicle id="214" depart="1307.0">
        <route edges="s_t t_e e_t t_s"/>
    </vehicle>
    <vehicle id="215" depart="1308.0">
        <route edges="n_t t_s"/>
    </vehicle>
    <vehicle id="216" depart="1320.0">
        <route edges="e_t t_s"/>
    </vehicle>
    <vehicle id="217" depart="1333.0">
        <route edges="e_t t_w"/>
    </vehicle>
    <vehicle id="218" depart="1341.0">
        <route edges="w_t t_s"/>
    </vehicle>
    <vehicle id="219" depart="1344.0">
        <route edges="n_t t_w"/>
    </vehicle>
    <vehicle id="220" depart="1349.0">
        <route edges="w_t t_e"/>
    </vehicle>
    <vehicle id="221" depart="1357.0">
        <route edges="w_t t_n n_t t_w"/>
    </vehicle>
    <vehicle id="222" depart="1358.0">
        <route edges="s_t t_e e_t t_s"/>
    </vehicle>
    <vehicle id="223" depart="1360.0">
        <route edges="n_t t_w"/>
    </vehicle>
    <vehicle id="224" depart="1363.0">
        <route edges="w_t t_n"/>
    </vehicle>
    <vehicle id="225" depart="1373.0">
        <route edges="w_t t_n"/>
    </vehicle>
    <vehicle id="226" depart="1382.0">
        <route edges="e_t t_n"/>
    </vehicle>
    <vehicle id="227" depart="1383.0">
        <route edges="e_t t_w"/>
    </vehicle>
    <vehicle id="228" depart="1386.0">
        <route edges="w_t t_e"/>
    </vehicle>
    <vehicle id="229" depart="1392.0">
        <route edges="s_t t_n"/>
    </vehicle>
    <vehicle id="230" depart="1403.0">
        <route edges="e_t t_n"/>
    </vehicle>
    <vehicle id="231" depart="1405.0">
        <route edges="e_t t_s"/>
    </vehicle>
    <vehicle id="232" depart="1408.0">
        <route edges="e_t t_s s_t t_e"/>
    </vehicle>
    <vehicle id="233" depart="1411.0">
        <route edges="n_t t_e"/>
    </vehicle>
    <vehicle id="234" depart="1411.0">
        <route edges="s_t t_e e_t t_s"/>
    </vehicle>
    <vehicle id="235" depart="1415.0">
        <route edges="w_t t_e"/>
    </vehicle>
    <vehicle id="236" depart="1417.0">
        <route edges="n_t t_s"/>
    </vehicle>
    <vehicle id="237" depart="1423.0">
        <route edges="n_t t_s"/>
    </vehicle>
    <vehicle id="238" depart="1429.0">
        <route edges="n_t t_s"/>
    </vehicle>
    <vehicle id="239" depart="1434.0">
        <route edges="w_t t_n n_t t_w"/>
    </vehicle>
    <vehicle id="240" depart="1435.0">
        <route edges="w_t t_s"/>
    </vehicle>
    <vehicle id="241" depart="1436.0">
        <route edges="n_t t_w"/>
    </vehicle>
    <vehicle id="242" depart="1441.0">
        <route edges="w_t t_s"/>
    </vehicle>
    <vehicle id="243" depart="1447.0">
        <route edges="n_t t_e e_t t_n"/>
    </vehicle>
    <vehicle id="244" depart="1450.0">
        <route edges="e_t t_w"/>
    </vehicle>
    <vehicle id="245" depart="1454.0">
        <route edges="e_t t_s"/>
    </vehicle>
    <vehicle id="246" depart="1460.0">
        <route edges="s_t t_w"/>
    </vehicle>
    <vehicle id="247" depart="1460.0">
        <route edges="w_t t_n n_t t_w"/>
    </vehicle>
    <vehicle id="248" depart="1467.0">
        <route edges="e_t t_s"/>
    </vehicle>
    <vehicle id="249" depart="1477.0">
        <route edges="s_t t_n"/>
    </vehicle>
    <vehicle id="250" depart="1477.0">
        <route edges="s_t t_n"/>
    </vehicle>
    <vehicle id="251" depart="1492.0">
        <route edges="s_t t_e"/>
    </vehicle>
    <vehicle id="252" depart="1495.0">
        <route edges="n_t t_e e_t t_n"/>
    </vehicle>
    <vehicle id="253" depart="1496.0">
        <route edges="n_t t_e e_t t_n"/>
    </vehicle>
    <vehicle id="254" depart="1496.0">
        <route edges="w_t t_s"/>
    </vehicle>
    <vehicle id="255" depart="1500.0">
        <route edges="n_t t_s"/>
    </vehicle>
    <vehicle id="256" depart="1500.0">
        <route edges="n_t t_e"/>
    </vehicle>
    <vehicle id="257" depart="1502.0">
        <route edges="e_t t_n"/>
    </vehicle>
    <vehicle id="258" depart="1502.0">
        <route edges="s_t t_w"/>
    </vehicle>
    <vehicle id="259" depart="1511.0">
        <route edges="w_t t_s"/>
    </vehicle>
    <vehicle id="260" depart="1516.0">
        <route edges="w_t t_n"/>
    </vehicle>
    <vehicle id="261" depart="1516.0">
        <route edges="w_t t_n"/>
    </vehicle>
    <vehicle id="262" depart="1517.0">
        <route edges="s_t t_w"/>
    </vehicle>
    <vehicle id="263" depart="1524.0">
        <route edges="n_t t_e"/>
    </vehicle>
    <vehicle id="264" depart="1527.0">
        <route edges="s_t t_e e_t t_s"/>
    </vehicle>
    <vehicle id="265" depart="1531.0">
        <route edges="n_t t_e"/>
    </vehicle>
    <vehicle id="266" depart="1531.0">
        <route edges="n_t t_e e_t t_n"/>
    </vehicle>
    <vehicle id="267" depart="1532.0">
        <route edges="n_t t_w"/>
    </vehicle>
    <vehicle id="268" depart="1537.0">
        <route edges="s_t t_e e_t t_s"/>
    </vehicle>
    <vehicle id="269" depart="1538.0">
        <route edges="w_t t_s"/>
    </vehicle>
    <vehicle id="270" depart="1540.0">
        <route edges="n_t t_s"/>
    </vehicle>
    <vehicle id="271" depart="1542.0">
        <route edges="s_t t_e e_t t_s"/>
    </vehicle>
    <vehicle id="272" depart="1544.0">
        <route edges="s_t t_n"/>
    </vehicle>
    <vehicle id="273" depart="1547.0">
        <route edges="s_t t_e e_t t_s"/>
    </vehicle>
    <vehicle id="274" depart="1548.0">
        <route edges="w_t t_n n_t t_w"/>
    </vehicle>
    <vehicle id="275" depart="1552.0">
        <route edges="w_t t_n n_t t_w"/>
    </vehicle>
    <vehicle id="276" depart="1557.0">
        <route edges="w_t t_s"/>
    </vehicle>
    <vehicle id="277" depart="1560.0">
        <route edges="n_t t_e e_t t_n"/>
    </vehicle>
    <vehicle id="278" depart="1560.0">
        <route edges="s_t t_w"/>
    </vehicle>
    <vehicle id="279" depart="1563.0">
        <route edges="s_t t_e"/>
    </vehicle>
    <vehicle id="280" depart="1564.0">
        <route edges="w_t t_n"/>
    </vehicle>
    <vehicle id="281" depart="1575.0">
        <route edges="n_t t_e"/>
    </vehicle>
    <vehicle id="282" depart="1575.0">
        <route edges="s_t t_e e_t t_s"/>
    </vehicle>
    <vehicle id="283" depart="1581.0">
        <route edges="n_t t_e e_t t_n"/>
    </vehicle>
    <vehicle id="284" depart="1588.0">
        <route edges="s_t t_e"/>
    </vehicle>
    <vehicle id="285" depart="1589.0">
        <route edges="s_t t_w"/>
    </vehicle>
    <vehicle id="286" depart="1600.0">
        <route edges="s_t t_n"/>
    </vehicle>
    <vehicle id="287" depart="1601.0">
        <route edges="s_t t_e e_t t_s"/>
    </vehicle>
    <vehicle id="288" depart="1611.0">
        <route edges="e_t t_s s_t t_e"/>
    </vehicle>
    <vehicle id="289" depart="1612.0">
        <route edges="w_t t_n"/>
    </vehicle>
    <vehicle id="290" depart="1613.0">
        <route edges="e_t t_w"/>
    </vehicle>
    <vehicle id="291" depart="1617.0">
        <route edges="s_t t_n"/>
    </vehicle>
    <vehicle id="292" depart="1620.0">
        <route edges="s_t t_e e_t t_s"/>
    </vehicle>
    <vehicle id="293" depart="1621.0">
        <route edges="e_t t_s"/>
    </vehicle>
    <vehicle id="294" depart="1624.0">
        <route edges="s_t t_w"/>
    </vehicle>
    <vehicle id="295" depart="1635.0">
        <route edges="n_t t_s"/>
    </vehicle>
    <vehicle id="296" depart="1653.0">
        <route edges="e_t t_s"/>
    </vehicle>
    <vehicle id="297" depart="1657.0">
        <route edges="e_t t_w"/>
    </vehicle>
    <vehicle id="298" depart="1660.0">
        <route edges="w_t t_n"/>
    </vehicle>
    <vehicle id="299" depart="1665.0">
        <route edges="e_t t_w"/>
    </vehicle>
    <vehicle id="300" depart="1666.0">
        <route edges="s_t t_w"/>
    </vehicle>
    <vehicle id="301" depart="1667.0">
        <route edges="e_t t_w"/>
    </vehicle>
    <vehicle id="302" depart="1669.0">
        <route edges="s_t t_n"/>
    </vehicle>
    <vehicle id="303" depart="1681.0">
        <route edges="n_t t_w"/>
    </vehicle>
    <vehicle id="304" depart="1682.0">
        <route edges="w_t t_e"/>
    </vehicle>
    <vehicle id="305" depart="1683.0">
        <route edges="s_t t_e"/>
    </vehicle>
    <vehicle id="306" depart="1694.0">
        <route edges="w_t t_n"/>
    </vehicle>
    <vehicle id="307" depart="1706.0">
        <route edges="w_t t_s"/>
    </vehicle>
    <vehicle id="308" depart="1707.0">
        <route edges="s_t t_n"/>
    </vehicle>
    <vehicle id="309" depart="1708.0">
        <route edges="s_t t_e"/>
    </vehicle>
    <vehicle id="310" depart="1711.0">
        <route edges="e_t t_s"/>
    </vehicle>
    <vehicle id="311" depart="1711.0">
        <route edges="n_t t_w"/>
    </vehicle>
    <vehicle id="312" depart="1711.0">
        <route edges="e_t t_s"/>
    </vehicle>
    <vehicle id="313" depart="1711.0">
        <route edges="s_t t_n"/>
    </vehicle>
    <vehicle id="314" depart="1716.0">
        <route edges="e_t t_n"/>
    </vehicle>
    <vehicle id="315" depart="1718.0">
        <route edges="n_t t_e"/>
    </vehicle>
    <vehicle id="316" depart="1719.0">
        <route edges="e_t t_s s_t t_e"/>
    </vehicle>
    <vehicle id="317" depart="1720.0">
        <route edges="s_t t_w"/>
    </vehicle>
    <vehicle id="318" depart="1721.0">
        <route edges="e_t t_s s_t t_e"/>
    </vehicle>
    <vehicle id="319" depart="1728.0">
        <route edges="s_t t_w"/>
    </vehicle>
    <vehicle id="320" depart="1742.0">
        <route edges="w_t t_s"/>
    </vehicle>
    <vehicle id="321" depart="1748.0">
        <route edges="n_t t_w"/>
    </vehicle>
    <vehicle id="322" depart="1758.0">
        <route edges="e_t t_s"/>
    </vehicle>
    <vehicle id="323" depart="1758.0">
        <route edges="e_t t_n"/>
    </vehicle>
    <vehicle id="324" depart="1760.0">
        <route edges="n_t t_e e_t t_n"/>
    </vehicle>