<?xml version="1.0" encoding="UTF-8"?>

<!-- generated on 2023-06-30 22:45:01.392355 by randomTrips.py UNKNOWN
<configuration>
    <net-file value="nets/2way-single-intersection/single-intersection.net.xml"/>
    <route-file value="training/routes/2x2_tr_ep14.rou.xml"/>
    <seed value="14"/>
    <validate value="True"/>
    <end value="500.0"/>
</configuration>
-->

<!-- generated on 2023-06-30 22:45:01 by Eclipse SUMO duarouter Version v1_17_0+1256-16eabe86c67
<configuration xmlns:xsi="http://www.w3.org/2001/XMLSchema-instance" xsi:noNamespaceSchemaLocation="http://sumo.dlr.de/xsd/duarouterConfiguration.xsd">

    <input>
        <net-file value="nets/2way-single-intersection/single-intersection.net.xml"/>
        <route-files value="trips.trips.xml"/>
    </input>

    <output>
        <output-file value="training/routes/2x2_tr_ep14.rou.xml"/>
        <alternatives-output value="NUL"/>
    </output>

    <time>
        <begin value="0"/>
        <end value="500.0"/>
    </time>

    <report>
        <no-warnings value="true"/>
        <ignore-errors value="true"/>
        <no-step-log value="true"/>
    </report>

</configuration>
-->

<routes xmlns:xsi="http://www.w3.org/2001/XMLSchema-instance" xsi:noNamespaceSchemaLocation="http://sumo.dlr.de/xsd/routes_file.xsd">
    <vehicle id="0" depart="93.0">
        <route edges="e_t t_s"/>
    </vehicle>
    <vehicle id="1" depart="96.0">
        <route edges="s_t t_w"/>
    </vehicle>
    <vehicle id="2" depart="102.0">
        <route edges="n_t t_e e_t t_n"/>
    </vehicle>
    <vehicle id="3" depart="138.0">
        <route edges="s_t t_e e_t t_s"/>
    </vehicle>
    <vehicle id="4" depart="177.0">
        <route edges="n_t t_s"/>
    </vehicle>
    <vehicle id="5" depart="199.0">
        <route edges="n_t t_w"/>
    </vehicle>
    <vehicle id="6" depart="202.0">
        <route edges="e_t t_s s_t t_e"/>
    </vehicle>
    <vehicle id="7" depart="205.0">
        <route edges="w_t t_n"/>
    </vehicle>
    <vehicle id="8" depart="223.0">
        <route edges="n_t t_w"/>
    </vehicle>
    <vehicle id="9" depart="230.0">
        <route edges="s_t t_e"/>
    </vehicle>
    <vehicle id="10" depart="235.0">
        <route edges="s_t t_e e_t t_s"/>
    </vehicle>
    <vehicle id="11" depart="246.0">
        <route edges="e_t t_s"/>
    </vehicle>
    <vehicle id="12" depart="249.0">
        <route edges="e_t t_n"/>
    </vehicle>
    <vehicle id="13" depart="255.0">
        <route edges="e_t t_s s_t t_e"/>
    </vehicle>
    <vehicle id="14" depart="263.0">
        <route edges="w_t t_n"/>
    </vehicle>
    <vehicle id="15" depart="281.0">
        <route edges="w_t t_n"/>
    </vehicle>
    <vehicle id="16" depart="288.0">
        <route edges="s_t t_w"/>
    </vehicle>
    <vehicle id="17" depart="298.0">
        <route edges="s_t t_e"/>
    </vehicle>
    <vehicle id="18" depart="326.0">
        <route edges="s_t t_e e_t t_s"/>
    </vehicle>
    <vehicle id="19" depart="328.0">
        <route edges="e_t t_s s_t t_e"/>
    </vehicle>
    <vehicle id="20" depart="332.0">
        <route edges="w_t t_s"/>
    </vehicle>
    <vehicle id="21" depart="335.0">
        <route edges="e_t t_n"/>
    </vehicle>
    <vehicle id="22" depart="351.0">
        <route edges="e_t t_w"/>
    </vehicle>
    <vehicle id="23" depart="356.0">
        <route edges="s_t t_e"/>
    </vehicle>
    <vehicle id="24" depart="360.0">
        <route edges="w_t t_e"/>
    </vehicle>
    <vehicle id="25" depart="366.0">
        <route edges="n_t t_e"/>
    </vehicle>
    <vehicle id="26" depart="367.0">
        <route edges="s_t t_e"/>
    </vehicle>
    <vehicle id="27" depart="369.0">
        <route edges="s_t t_e"/>
    </vehicle>
    <vehicle id="28" depart="379.0">
        <route edges="n_t t_s"/>
    </vehicle>
    <vehicle id="29" depart="379.0">
        <route edges="s_t t_n"/>
    </vehicle>
    <vehicle id="30" depart="387.0">
        <route edges="n_t t_e e_t t_n"/>
    </vehicle>
    <vehicle id="31" depart="394.0">
        <route edges="s_t t_e"/>
    </vehicle>
    <vehicle id="32" depart="405.0">
        <route edges="n_t t_e"/>
    </vehicle>
    <vehicle id="33" depart="430.0">
        <route edges="w_t t_n n_t t_w"/>
    </vehicle>
    <vehicle id="34" depart="439.0">
        <route edges="e_t t_s s_t t_e"/>
    </vehicle>
    <vehicle id="35" depart="454.0">
        <route edges="s_t t_e e_t t_s"/>
    </vehicle>
    <vehicle id="36" depart="455.0">
        <route edges="e_t t_s"/>
    </vehicle>
    <vehicle id="37" depart="463.0">
        <route edges="w_t t_n"/>
    </vehicle>
    <vehicle id="38" depart="471.0">
        <route edges="n_t t_s"/>
    </vehicle>
    <vehicle id="39" depart="472.0">
        <route edges="w_t t_n"/>
    </vehicle>
    <vehicle id="40" depart="474.0">
        <route edges="n_t t_e"/>
    </vehicle>
    <vehicle id="41" depart="476.0">
        <route edges="s_t t_n"/>
    </vehicle>
    <vehicle id="42" depart="479.0">
        <route edges="n_t t_e e_t t_n"/>
    </vehicle>
    <vehicle id="43" depart="484.0">
        <route edges="e_t t_n"/>
    </vehicle>
    <vehicle id="44" depart="484.0">
        <route edges="w_t t_s"/>
    </vehicle>
    <vehicle id="45" depart="502.0">
        <route edges="n_t t_w"/>
    </vehicle>
    <vehicle id="46" depart="517.0">
        <route edges="n_t t_e e_t t_n"/>
    </vehicle>
    <vehicle id="47" depart="522.0">
        <route edges="e_t t_s s_t t_e"/>
    </vehicle>
    <vehicle id="48" depart="527.0">
        <route edges="e_t t_s s_t t_e"/>
    </vehicle>
    <vehicle id="49" depart="545.0">
        <route edges="w_t t_n"/>
    </vehicle>
    <vehicle id="50" depart="554.0">
        <route edges="e_t t_s"/>
    </vehicle>
    <vehicle id="51" depart="557.0">
        <route edges="w_t t_n"/>
    </vehicle>
    <vehicle id="52" depart="561.0">
        <route edges="w_t t_n"/>
    </vehicle>
    <vehicle id="53" depart="570.0">
        <route edges="s_t t_e e_t t_s"/>
    </vehicle>
    <vehicle id="54" depart="575.0">
        <route edges="w_t t_n n_t t_w"/>
    </vehicle>
    <vehicle id="55" depart="585.0">
        <route edges="s_t t_w"/>
    </vehicle>
    <vehicle id="56" depart="591.0">
        <route edges="n_t t_e e_t t_n"/>
    </vehicle>
    <vehicle id="57" depart="594.0">
        <route edges="w_t t_s"/>
    </vehicle>
    <vehicle id="58" depart="605.0">
        <route edges="w_t t_n"/>
    </vehicle>
    <vehicle id="59" depart="607.0">
        <route edges="w_t t_s"/>
    </vehicle>
    <vehicle id="60" depart="610.0">
        <route edges="e_t t_w"/>
    </vehicle>
    <vehicle id="61" depart="624.0">
        <route edges="n_t t_e e_t t_n"/>
    </vehicle>
    <vehicle id="62" depart="631.0">
        <route edges="n_t t_e"/>
    </vehicle>
    <vehicle id="63" depart="632.0">
        <route edges="e_t t_s"/>
    </vehicle>
    <vehicle id="64" depart="656.0">
        <route edges="e_t t_n"/>
    </vehicle>
    <vehicle id="65" depart="656.0">
        <route edges="n_t t_s"/>
    </vehicle>
    <vehicle id="66" depart="686.0">
        <route edges="n_t t_w"/>
    </vehicle>
    <vehicle id="67" depart="688.0">
        <route edges="n_t t_e e_t t_n"/>
    </vehicle>
    <vehicle id="68" depart="702.0">
        <route edges="n_t t_e"/>
    </vehicle>
    <vehicle id="69" depart="707.0">
        <route edges="e_t t_s s_t t_e"/>
    </vehicle>
    <vehicle id="70" depart="721.0">
        <route edges="s_t t_e"/>
    </vehicle>
    <vehicle id="71" depart="723.0">
        <route edges="s_t t_e"/>
    </vehicle>
    <vehicle id="72" depart="731.0">
        <route edges="s_t t_e e_t t_s"/>
    </vehicle>
    <vehicle id="73" depart="731.0">
        <route edges="n_t t_w"/>
    </vehicle>
    <vehicle id="74" depart="733.0">
        <route edges="s_t t_e e_t t_s"/>
    </vehicle>
    <vehicle id="75" depart="738.0">
        <route edges="e_t t_n"/>
    </vehicle>
    <vehicle id="76" depart="749.0">
        <route edges="n_t t_e e_t t_n"/>
    </vehicle>
    <vehicle id="77" depart="751.0">
        <route edges="w_t t_n n_t t_w"/>
    </vehicle>
    <vehicle id="78" depart="751.0">
        <route edges="e_t t_s"/>
    </vehicle>
    <vehicle id="79" depart="751.0">
        <route edges="w_t t_s"/>
    </vehicle>
    <vehicle id="80" depart="756.0">
        <route edges="e_t t_w"/>
    </vehicle>
    <vehicle id="81" depart="757.0">
        <route edges="n_t t_w"/>
    </vehicle>
    <vehicle id="82" depart="761.0">
        <route edges="w_t t_n n_t t_w"/>
    </vehicle>
    <vehicle id="83" depart="771.0">
        <route edges="w_t t_e"/>
    </vehicle>
    <vehicle id="84" depart="776.0">
        <route edges="w_t t_n"/>
    </vehicle>
    <vehicle id="85" depart="783.0">
        <route edges="e_t t_n"/>
    </vehicle>
    <vehicle id="86" depart="784.0">
        <route edges="s_t t_e"/>
    </vehicle>
    <vehicle id="87" depart="784.0">
        <route edges="n_t t_w"/>
    </vehicle>
    <vehicle id="88" depart="786.0">
        <route edges="n_t t_s"/>
    </vehicle>
    <vehicle id="89" depart="787.0">
        <route edges="n_t t_w"/>
    </vehicle>
    <vehicle id="90" depart="792.0">
        <route edges="e_t t_s"/>
    </vehicle>
    <vehicle id="91" depart="798.0">
        <route edges="s_t t_e"/>
    </vehicle>
    <vehicle id="92" depart="805.0">
        <route edges="w_t t_e"/>
    </vehicle>
    <vehicle id="93" depart="807.0">
        <route edges="w_t t_n n_t t_w"/>
    </vehicle>
    <vehicle id="94" depart="814.0">
        <route edges="w_t t_n n_t t_w"/>
    </vehicle>
    <vehicle id="95" depart="816.0">
        <route edges="n_t t_e e_t t_n"/>
    </vehicle>
    <vehicle id="96" depart="819.0">
        <route edges="n_t t_w"/>
    </vehicle>
    <vehicle id="97" depart="821.0">
        <route edges="e_t t_s s_t t_e"/>
    </vehicle>
    <vehicle id="98" depart="825.0">
        <route edges="w_t t_n n_t t_w"/>
    </vehicle>
    <vehicle id="99" depart="828.0">
        <route edges="s_t t_w"/>
    </vehicle>
    <vehicle id="100" depart="842.0">
        <route edges="s_t t_w"/>
    </vehicle>
    <vehicle id="101" depart="859.0">
        <route edges="n_t t_w"/>
    </vehicle>
    <vehicle id="102" depart="876.0">
        <route edges="e_t t_n"/>
    </vehicle>
    <vehicle id="103" depart="894.0">
        <route edges="s_t t_w"/>
    </vehicle>
    <vehicle id="104" depart="895.0">
        <route edges="n_t t_s"/>
    </vehicle>
    <vehicle id="105" depart="900.0">
        <route edges="w_t t_n"/>
    </vehicle>
    <vehicle id="106" depart="900.0">
        <route edges="e_t t_s s_t t_e"/>
    </vehicle>
    <vehicle id="107" depart="904.0">
        <route edges="w_t t_n"/>
    </vehicle>
    <vehicle id="108" depart="904.0">
        <route edges="n_t t_s"/>
    </vehicle>
    <vehicle id="109" depart="906.0">
        <route edges="e_t t_s s_t t_e"/>
    </vehicle>
    <vehicle id="110" depart="909.0">
        <route edges="e_t t_n"/>
    </vehicle>
    <vehicle id="111" depart="912.0">
        <route edges="w_t t_e"/>
    </vehicle>
    <vehicle id="112" depart="914.0">
        <route edges="e_t t_w"/>
    </vehicle>
    <vehicle id="113" depart="915.0">
        <route edges="s_t t_e"/>
    </vehicle>
    <vehicle id="114" depart="924.0">
        <route edges="s_t t_e e_t t_s"/>
    </vehicle>
    <vehicle id="115" depart="929.0">
        <route edges="s_t t_w"/>
    </vehicle>
    <vehicle id="116" depart="936.0">
        <route edges="n_t t_e"/>
    </vehicle>
    <vehicle id="117" depart="941.0">
        <route edges="s_t t_e e_t t_s"/>
    </vehicle>
    <vehicle id="118" depart="941.0">
        <route edges="s_t t_e"/>
    </vehicle>
    <vehicle id="119" depart="943.0">
        <route edges="n_t t_s"/>
    </vehicle>
    <vehicle id="120" depart="946.0">
        <route edges="n_t t_s"/>
    </vehicle>
    <vehicle id="121" depart="946.0">
        <route edges="n_t t_w"/>
    </vehicle>
    <vehicle id="122" depart="952.0">
        <route edges="n_t t_e e_t t_n"/>
    </vehicle>
    <vehicle id="123" depart="954.0">
        <route edges="w_t t_n"/>
    </vehicle>
    <vehicle id="124" depart="961.0">
        <route edges="e_t t_s"/>
    </vehicle>
    <vehicle id="125" depart="975.0">
        <route edges="e_t t_w"/>
    </vehicle>
    <vehicle id="126" depart="976.0">
        <route edges="n_t t_w"/>
    </vehicle>
    <vehicle id="127" depart="978.0">
        <route edges="s_t t_e"/>
    </vehicle>
    <vehicle id="128" depart="979.0">
        <route edges="s_t t_e e_t t_s"/>
    </vehicle>
    <vehicle id="129" depart="983.0">
        <route edges="n_t t_s"/>
    </vehicle>
    <vehicle id="130" depart="984.0">
        <route edges="n_t t_w"/>
    </vehicle>
    <vehicle id="131" depart="992.0">
        <route edges="e_t t_w"/>
    </vehicle>
    <vehicle id="132" depart="994.0">
        <route edges="e_t t_s"/>
    </vehicle>
    <vehicle id="133" depart="997.0">
        <route edges="e_t t_s s_t t_e"/>
    </vehicle>
    <vehicle id="134" depart="999.0">
        <route edges="s_t t_w"/>
    </vehicle>
    <vehicle id="135" depart="1005.0">
        <route edges="n_t t_e e_t t_n"/>
    </vehicle>
    <vehicle id="136" depart="1015.0">
        <route edges="n_t t_s"/>
    </vehicle>
    <vehicle id="137" depart="1018.0">
        <route edges="n_t t_e e_t t_n"/>
    </vehicle>
    <vehicle id="138" depart="1018.0">
        <route edges="w_t t_s"/>
    </vehicle>
    <vehicle id="139" depart="1022.0">
        <route edges="n_t t_w"/>
    </vehicle>
    <vehicle id="140" depart="1022.0">
        <route edges="w_t t_n"/>
    </vehicle>
    <vehicle id="141" depart="1035.0">
        <route edges="e_t t_n"/>
    </vehicle>
    <vehicle id="142" depart="1038.0">
        <route edges="w_t t_e"/>
    </vehicle>
    <vehicle id="143" depart="1039.0">
        <route edges="e_t t_w"/>
    </vehicle>
    <vehicle id="144" depart="1042.0">
        <route edges="e_t t_w"/>
    </vehicle>
    <vehicle id="145" depart="1046.0">
        <route edges="e_t t_n"/>
    </vehicle>
    <vehicle id="146" depart="1053.0">
        <route edges="s_t t_e"/>
    </vehicle>
    <vehicle id="147" depart="1056.0">
        <route edges="w_t t_n"/>
    </vehicle>
    <vehicle id="148" depart="1059.0">
        <route edges="w_t t_n n_t t_w"/>
    </vehicle>
    <vehicle id="149" depart="1059.0">
        <route edges="e_t t_w"/>
    </vehicle>
    <vehicle id="150" depart="1059.0">
        <route edges="w_t t_e"/>
    </vehicle>
    <vehicle id="151" depart="1060.0">
        <route edges="s_t t_e"/>
    </vehicle>
    <vehicle id="152" depart="1061.0">
        <route edges="s_t t_w"/>
    </vehicle>
    <vehicle id="153" depart="1071.0">
        <route edges="n_t t_s"/>
    </vehicle>
    <vehicle id="154" depart="1076.0">
        <route edges="e_t t_w"/>
    </vehicle>
    <vehicle id="155" depart="1080.0">
        <route edges="s_t t_w"/>
    </vehicle>
    <vehicle id="156" depart="1082.0">
        <route edges="e_t t_s"/>
    </vehicle>
    <vehicle id="157" depart="1082.0">
        <route edges="e_t t_s"/>
    </vehicle>
    <vehicle id="158" depart="1094.0">
        <route edges="e_t t_w"/>
    </vehicle>
    <vehicle id="159" depart="1097.0">
        <route edges="e_t t_n"/>
    </vehicle>
    <vehicle id="160" depart="1097.0">
        <route edges="n_t t_e e_t t_n"/>
    </vehicle>
    <vehicle id="161" depart="1099.0">
        <route edges="e_t t_s"/>
    </vehicle>
    <vehicle id="162" depart="1100.0">
        <route edges="w_t t_n"/>
    </vehicle>
    <vehicle id="163" depart="1105.0">
        <route edges="w_t t_n"/>
    </vehicle>
    <vehicle id="164" depart="1105.0">
        <route edges="n_t t_e e_t t_n"/>
    </vehicle>
    <vehicle id="165" depart="1107.0">
        <route edges="w_t t_n n_t t_w"/>
    </vehicle>
    <vehicle id="166" depart="1119.0">
        <route edges="s_t t_e"/>
    </vehicle>
    <vehicle id="167" depart="1162.0">
        <route edges="n_t t_e"/>
    </vehicle>
    <vehicle id="168" depart="1165.0">
        <route edges="e_t t_n"/>
    </vehicle>
    <vehicle id="169" depart="1172.0">
        <route edges="e_t t_s s_t t_e"/>
    </vehicle>
    <vehicle id="170" depart="1173.0">
        <route edges="s_t t_w"/>
    </vehicle>
    <vehicle id="171" depart="1174.0">
        <route edges="w_t t_n n_t t_w"/>
    </vehicle>
    <vehicle id="172" depart="1179.0">
        <route edges="n_t t_e"/>
    </vehicle>
    <vehicle id="173" depart="1181.0">
        <route edges="w_t t_n"/>
    </vehicle>
    <vehicle id="174" depart="1183.0">
        <route edges="n_t t_w"/>
    </vehicle>
    <vehicle id="175" depart="1187.0">
        <route edges="s_t t_w"/>
    </vehicle>
    <vehicle id="176" depart="1189.0">
        <route edges="s_t t_w"/>
    </vehicle>
    <vehicle id="177" depart="1192.0">
        <route edges="e_t t_w"/>
    </vehicle>
    <vehicle id="178" depart="1193.0">
        <route edges="s_t t_e e_t t_s"/>
    </vehicle>
    <vehicle id="179" depart="1201.0">
        <route edges="n_t t_e"/>
    </vehicle>
    <vehicle id="180" depart="1201.0">
        <route edges="n_t t_e"/>
    </vehicle>
    <vehicle id="181" depart="1201.0">
        <route edges="w_t t_e"/>
    </vehicle>
    <vehicle id="182" depart="1204.0">
        <route edges="e_t t_s"/>
    </vehicle>
    <vehicle id="183" depart="1206.0">
        <route edges="e_t t_s s_t t_e"/>
    </vehicle>
    <vehicle id="184" depart="1208.0">
        <route edges="n_t t_e"/>
    </vehicle>
    <vehicle id="185" depart="1209.0">
        <route edges="e_t t_s"/>
    </vehicle>
    <vehicle id="186" depart="1219.0">
        <route edges="s_t t_n"/>
    </vehicle>
    <vehicle id="187" depart="1225.0">
        <route edges="w_t t_s"/>
    </vehicle>
    <vehicle id="188" depart="1227.0">
        <route edges="e_t t_w"/>
    </vehicle>
    <vehicle id="189" depart="1232.0">
        <route edges="e_t t_w"/>
    </vehicle>
    <vehicle id="190" depart="1232.0">
        <route edges="w_t t_e"/>
    </vehicle>
    <vehicle id="191" depart="1233.0">
        <route edges="w_t t_n"/>
    </vehicle>
    <vehicle id="192" depart="1236.0">
        <route edges="s_t t_w"/>
    </vehicle>
    <vehicle id="193" depart="1236.0">
        <route edges="n_t t_e"/>
    </vehicle>
    <vehicle id="194" depart="1236.0">
        <route edges="e_t t_w"/>
    </vehicle>
    <vehicle id="195" depart="1240.0">
        <route edges="n_t t_s"/>
    </vehicle>
    <vehicle id="196" depart="1243.0">
        <route edges="s_t t_w"/>
    </vehicle>
    <vehicle id="197" depart="1247.0">
        <route edges="w_t t_n n_t t_w"/>
    </vehicle>
    <vehicle id="198" depart="1256.0">
        <route edges="s_t t_w"/>
    </vehicle>
    <vehicle id="199" depart="1258.0">
        <route edges="n_t t_e"/>
    </vehicle>
    <vehicle id="200" depart="1260.0">
        <route edges="s_t t_e"/>
    </vehicle>
    <vehicle id="201" depart="1263.0">
        <route edges="w_t t_n"/>
    </vehicle>
    <vehicle id="202" depart="1265.0">
        <route edges="n_t t_e e_t t_n"/>
    </vehicle>
    <vehicle id="203" depart="1268.0">
        <route edges="n_t t_s"/>
    </vehicle>
    <vehicle id="204" depart="1269.0">
        <route edges="w_t t_e"/>
    </vehicle>
    <vehicle id="205" depart="1270.0">
        <route edges="n_t t_e"/>
    </vehicle>
    <vehicle id="206" depart="1270.0">
        <route edges="w_t t_n"/>
    </vehicle>
    <vehicle id="207" depart="1285.0">
        <route edges="n_t t_w"/>
    </vehicle>
    <vehicle id="208" depart="1288.0">
        <route edges="n_t t_e e_t t_n"/>
    </vehicle>
    <vehicle id="209" depart="1297.0">
        <route edges="n_t t_e"/>
    </vehicle>
    <vehicle id="210" depart="1298.0">
        <route edges="s_t t_n"/>
    </vehicle>
    <vehicle id="211" depart="1309.0">
        <route edges="s_t t_e e_t t_s"/>
    </vehicle>
    <vehicle id="212" depart="1320.0">
        <route edges="w_t t_s"/>
    </vehicle>
    <vehicle id="213" depart="1324.0">
        <route edges="n_t t_w"/>
    </vehicle>
    <vehicle id="214" depart="1339.0">
        <route edges="w_t t_n n_t t_w"/>
    </vehicle>
    <vehicle id="215" depart="1341.0">
        <route edges="s_t t_n"/>
    </vehicle>
    <vehicle id="216" depart="1353.0">
        <route edges="n_t t_w"/>
    </vehicle>
    <vehicle id="217" depart="1357.0">
        <route edges="n_t t_s"/>
    </vehicle>
    <vehicle id="218" depart="1357.0">
        <route edges="n_t t_e e_t t_n"/>
    </vehicle>
    <vehicle id="219" depart="1370.0">
        <route edges="e_t t_s"/>
    </vehicle>
    <vehicle id="220" depart="1371.0">
        <route edges="n_t t_e e_t t_n"/>
    </vehicle>
    <vehicle id="221" depart="1379.0">
        <route edges="s_t t_w"/>
    </vehicle>
    <vehicle id="222" depart="1382.0">
        <route edges="w_t t_s"/>
    </vehicle>
    <vehicle id="223" depart="1388.0">
        <route edges="e_t t_w"/>
    </vehicle>
    <vehicle id="224" depart="1388.0">
        <route edges="e_t t_n"/>
    </vehicle>
    <vehicle id="225" depart="1397.0">
        <route edges="w_t t_n n_t t_w"/>
    </vehicle>
    <vehicle id="226" depart="1400.0">
        <route edges="s_t t_w"/>
    </vehicle>
    <vehicle id="227" depart="1402.0">
        <route edges="e_t t_s s_t t_e"/>
    </vehicle>
    <vehicle id="228" depart="1410.0">
        <route edges="n_t t_w"/>
    </vehicle>
    <vehicle id="229" depart="1410.0">
        <route edges="e_t t_n"/>
    </vehicle>
    <vehicle id="230" depart="1417.0">
        <route edges="s_t t_e"/>
    </vehicle>
    <vehicle id="231" depart="1422.0">
        <route edges="w_t t_e"/>
    </vehicle>
    <vehicle id="232" depart="1427.0">
        <route edges="e_t t_w"/>
    </vehicle>
    <vehicle id="233" depart="1434.0">
        <route edges="e_t t_s s_t t_e"/>
    </vehicle>
    <vehicle id="234" depart="1436.0">
        <route edges="n_t t_w"/>
    </vehicle>
    <vehicle id="235" depart="1436.0">
        <route edges="n_t t_s"/>
    </vehicle>
    <vehicle id="236" depart="1440.0">
        <route edges="w_t t_s"/>
    </vehicle>
    <vehicle id="237" depart="1451.0">
        <route edges="w_t t_e"/>
    </vehicle>
    <vehicle id="238" depart="1451.0">
        <route edges="s_t t_e"/>
    </vehicle>
    <vehicle id="239" depart="1454.0">
        <route edges="w_t t_e"/>
    </vehicle>
    <vehicle id="240" depart="1470.0">
        <route edges="e_t t_n"/>
    </vehicle>
    <vehicle id="241" depart="1472.0">
        <route edges="s_t t_e"/>
    </vehicle>
    <vehicle id="242" depart="1476.0">
        <route edges="s_t t_e"/>
    </vehicle>
    <vehicle id="243" depart="1480.0">
        <route edges="n_t t_e"/>
    </vehicle>
    <vehicle id="244" depart="1483.0">
        <route edges="s_t t_w"/>
    </vehicle>
    <vehicle id="245" depart="1487.0">
        <route edges="w_t t_n"/>
    </vehicle>
    <vehicle id="246" depart="1489.0">
        <route edges="e_t t_w"/>
    </vehicle>
    <vehicle id="247" depart="1494.0">
        <route edges="w_t t_n n_t t_w"/>
    </vehicle>
    <vehicle id="248" depart="1503.0">
        <route edges="n_t t_w"/>
    </vehicle>
    <vehicle id="249" depart="1506.0">
        <route edges="s_t t_w"/>
    </vehicle>
    <vehicle id="250" depart="1511.0">
        <route edges="s_t t_w"/>
    </vehicle>
    <vehicle id="251" depart="1515.0">
        <route edges="n_t t_e e_t t_n"/>
    </vehicle>
    <vehicle id="252" depart="1520.0">
        <route edges="n_t t_e"/>
    </vehicle>
    <vehicle id="253" depart="1524.0">
        <route edges="s_t t_n"/>
    </vehicle>
    <vehicle id="254" depart="1529.0">
        <route edges="e_t t_w"/>
    </vehicle>
    <vehicle id="255" depart="1534.0">
        <route edges="s_t t_n"/>
    </vehicle>
    <vehicle id="256" depart="1534.0">
        <route edges="w_t t_n n_t t_w"/>
    </vehicle>
    <vehicle id="257" depart="1536.0">
        <route edges="n_t t_s"/>
    </vehicle>
    <vehicle id="258" depart="1540.0">
        <route edges="e_t t_n"/>
    </vehicle>
    <vehicle id="259" depart="1540.0">
        <route edges="w_t t_s"/>
    </vehicle>
    <vehicle id="260" depart="1541.0">
        <route edges="w_t t_e"/>
    </vehicle>
    <vehicle id="261" depart="1542.0">
        <route edges="e_t t_s s_t t_e"/>
    </vehicle>
    <vehicle id="262" depart="1544.0">
        <route edges="e_t t_w"/>
    </vehicle>
    <vehicle id="263" depart="1549.0">
        <route edges="w_t t_n n_t t_w"/>
    </vehicle>
    <vehicle id="264" depart="1553.0">
        <route edges="s_t t_n"/>
    </vehicle>
    <vehicle id="265" depart="1556.0">
        <route edges="n_t t_e"/>
    </vehicle>
    <vehicle id="266" depart="1558.0">
        <route edges="n_t t_e"/>
    </vehicle>
    <vehicle id="267" depart="1565.0">
        <route edges="w_t t_s"/>
    </vehicle>
    <vehicle id="268" depart="1566.0">
        <route edges="n_t t_w"/>
    </vehicle>
    <vehicle id="269" depart="1569.0">
        <route edges="n_t t_w"/>
    </vehicle>
    <vehicle id="270" depart="1582.0">
        <route edges="s_t t_e e_t t_s"/>
    </vehicle>
    <vehicle id="271" depart="1600.0">
        <route edges="s_t t_e e_t t_s"/>
    </vehicle>
    <vehicle id="272" depart="1601.0">
        <route edges="w_t t_n n_t t_w"/>
    </vehicle>
    <vehicle id="273" depart="1602.0">
        <route edges="s_t t_w"/>
    </vehicle>
    <vehicle id="274" depart="1606.0">
        <route edges="e_t t_w"/>
    </vehicle>
    <vehicle id="275" depart="1612.0">
        <route edges="w_t t_s"/>
    </vehicle>
    <vehicle id="276" depart="1625.0">
        <route edges="e_t t_w"/>
    </vehicle>
    <vehicle id="277" depart="1639.0">
        <route edges="n_t t_e e_t t_n"/>
    </vehicle>
    <vehicle id="278" depart="1640.0">
        <route edges="w_t t_e"/>
    </vehicle>
    <vehicle id="279" depart="1643.0">
        <route edges="s_t t_e"/>
    </vehicle>
    <vehicle id="280" depart="1646.0">
        <route edges="w_t t_e"/>
    </vehicle>
    <vehicle id="281" depart="1650.0">
        <route edges="e_t t_n"/>
    </vehicle>
    <vehicle id="282" depart="1651.0">
        <route edges="n_t t_w"/>
    </vehicle>
    <vehicle id="283" depart="1656.0">
        <route edges="n_t t_e e_t t_n"/>
    </vehicle>
    <vehicle id="284" depart="1658.0">
        <route edges="n_t t_s"/>
    </vehicle>
    <vehicle id="285" depart="1659.0">
        <route edges="e_t t_s"/>
    </vehicle>
    <vehicle id="286" depart="1663.0">
        <route edges="w_t t_s"/>
    </vehicle>
    <vehicle id="287" depart="1667.0">
        <route edges="n_t t_e e_t t_n"/>
    </vehicle>
    <vehicle id="288" depart="1674.0">
        <route edges="e_t t_n"/>
    </vehicle>
    <vehicle id="289" depart="1675.0">
        <route edges="w_t t_e"/>
    </vehicle>
    <vehicle id="290" depart="1676.0">
        <route edges="s_t t_w"/>
    </vehicle>
    <vehicle id="291" depart="1682.0">
        <route edges="n_t t_e e_t t_n"/>
    </vehicle>
    <vehicle id="292" depart="1685.0">
        <route edges="s_t t_e"/>
    </vehicle>
    <vehicle id="293" depart="1709.0">
        <route edges="n_t t_s"/>
    </vehicle>
    <vehicle id="294" depart="1710.0">
        <route edges="s_t t_e"/>
    </vehicle>
    <vehicle id="295" depart="1711.0">
        <route edges="e_t t_n"/>
    </vehicle>
    <vehicle id="296" depart="1712.0">
        <route edges="w_t t_e"/>
    </vehicle>
    <vehicle id="297" depart="1713.0">
        <route edges="s_t t_e e_t t_s"/>
    </vehicle>
    <vehicle id="298" depart="1716.0">
        <route edges="n_t t_e e_t t_n"/>
    </vehicle>
    <vehicle id="299" depart="1721.0">
        <route edges="w_t t_e"/>
    </vehicle>
    <vehicle id="300" depart="1722.0">
        <route edges="s_t t_n"/>
    </vehicle>
    <vehicle id="301" depart="1722.0">
        <route edges="e_t t_n"/>
    </vehicle>
    <vehicle id="302" depart="1724.0">
        <route edges="e_t t_n"/>
    </vehicle>
    <vehicle id="303" depart="1730.0">
        <route edges="e_t t_s"/>
    </vehicle>
    <vehicle id="304" depart="1733.0">
        <route edges="w_t t_n n_t t_w"/>
    </vehicle>
    <vehicle id="305" depart="1736.0">
        <route edges="w_t t_n"/>
    </vehicle>
    <vehicle id="306" depart="1737.0">
        <route edges="w_t t_n"/>
    </vehicle>
    <vehicle id="307" depart="1737.0">
        <route edges="s_t t_n"/>
    </vehicle>
    <vehicle id="308" depart="1744.0">
        <route edges="s_t t_n"/>
    </vehicle>
    <vehicle id="309" depart="1746.0">
        <route edges="w_t t_n"/>
    </vehicle>
    <vehicle id="310" depart="1751.0">
        <route edges="w_t t_e"/>
    </vehicle>
    <vehicle id="311" depart="1755.0">
        <route edges="s_t t_e"/>
    </vehicle>
    <vehicle id="312" depart="1756.0">
        <route edges="n_t t_e e_t t_n"/>
    </vehicle>
    <vehicle id="313" depart="1763.0">
        <route edges="s_t t_e e_t t_s"/>
    </vehicle>
    <vehicle id="314" depart="1769.0">
        <route edges="n_t t_w"/>
    </vehicle>
    <vehicle id="315" depart="1771.0">
        <route edges="e_t t_n"/>
    </vehicle>
    <vehicle id="316" depart="1774.0">
        <route edges="e_t t_s s_t t_e"/>
    </vehicle>
    <vehicle id="317" depart="1793.0">
        <route edges="e_t t_w"/>
    </vehicle>
    <vehicle id="318" depart="1804.0">
        <route edges="e_t t_s"/>
    </vehicle>
    <vehicle id="319" depart="1805.0">
        <route edges="s_t t_w"/>
    </vehicle>
    <vehicle id="320" depart="1806.0">
        <route edges="w_t t_e"/>
    </vehicle>
    <vehicle id="321" depart="1811.0">
        <route edges="w_t t_e"/>
    </vehicle>
    <vehicle id="322" depart="1813.0">
        <route edges="e_t t_s s_t t_e"/>
    </vehicle>
    <vehicle id="323" depart="1824.0">
        <route edges="s_t t_e e_t t_s"/>
    </vehicle>
    <vehicle id="324" depart="1829.0">
        <route edges="s_t t_e"/>
    </vehicle>
    <vehicle id="325" depart="1834.0">