<?xml version="1.0" encoding="UTF-8"?>

<!-- generated on 2023-06-30 22:43:37.812972 by randomTrips.py UNKNOWN
<configuration>
    <net-file value="nets/2way-single-intersection/single-intersection.net.xml"/>
    <route-file value="training/routes/2x2_tr_ep9.rou.xml"/>
    <seed value="9"/>
    <validate value="True"/>
    <end value="500.0"/>
</configuration>
-->

<!-- generated on 2023-06-30 22:43:37 by Eclipse SUMO duarouter Version v1_17_0+1256-16eabe86c67
<configuration xmlns:xsi="http://www.w3.org/2001/XMLSchema-instance" xsi:noNamespaceSchemaLocation="http://sumo.dlr.de/xsd/duarouterConfiguration.xsd">

    <input>
        <net-file value="nets/2way-single-intersection/single-intersection.net.xml"/>
        <route-files value="trips.trips.xml"/>
    </input>

    <output>
        <output-file value="training/routes/2x2_tr_ep9.rou.xml"/>
        <alternatives-output value="NUL"/>
    </output>

    <time>
        <begin value="0"/>
        <end value="500.0"/>
    </time>

    <report>
        <no-warnings value="true"/>
        <ignore-errors value="true"/>
        <no-step-log value="true"/>
    </report>

</configuration>
-->

<routes xmlns:xsi="http://www.w3.org/2001/XMLSchema-instance" xsi:noNamespaceSchemaLocation="http://sumo.dlr.de/xsd/routes_file.xsd">
    <vehicle id="0" depart="12.0">
        <route edges="n_t t_e e_t t_n"/>
    </vehicle>
    <vehicle id="1" depart="80.0">
        <route edges="e_t t_w"/>
    </vehicle>
    <vehicle id="2" depart="157.0">
        <route edges="e_t t_s"/>
    </vehicle>
    <vehicle id="3" depart="208.0">
        <route edges="w_t t_e"/>
    </vehicle>
    <vehicle id="4" depart="208.0">
        <route edges="s_t t_e e_t t_s"/>
    </vehicle>
    <vehicle id="5" depart="216.0">
        <route edges="e_t t_n"/>
    </vehicle>
    <vehicle id="6" depart="217.0">
        <route edges="s_t t_n"/>
    </vehicle>
    <vehicle id="7" depart="226.0">
        <route edges="s_t t_e"/>
    </vehicle>
    <vehicle id="8" depart="254.0">
        <route edges="e_t t_s s_t t_e"/>
    </vehicle>
    <vehicle id="9" depart="279.0">
        <route edges="s_t t_w"/>
    </vehicle>
    <vehicle id="10" depart="291.0">
        <route edges="s_t t_w"/>
    </vehicle>
    <vehicle id="11" depart="311.0">
        <route edges="n_t t_s"/>
    </vehicle>
    <vehicle id="12" depart="320.0">
        <route edges="e_t t_n"/>
    </vehicle>
    <vehicle id="13" depart="340.0">
        <route edges="s_t t_e e_t t_s"/>
    </vehicle>
    <vehicle id="14" depart="372.0">
        <route edges="n_t t_e"/>
    </vehicle>
    <vehicle id="15" depart="385.0">
        <route edges="n_t t_e"/>
    </vehicle>
    <vehicle id="16" depart="392.0">
        <route edges="n_t t_w"/>
    </vehicle>
    <vehicle id="17" depart="397.0">
        <route edges="e_t t_w"/>
    </vehicle>
    <vehicle id="18" depart="420.0">
        <route edges="w_t t_e"/>
    </vehicle>
    <vehicle id="19" depart="431.0">
        <route edges="n_t t_e e_t t_n"/>
    </vehicle>
    <vehicle id="20" depart="440.0">
        <route edges="e_t t_n"/>
    </vehicle>
    <vehicle id="21" depart="456.0">
        <route edges="w_t t_e"/>
    </vehicle>
    <vehicle id="22" depart="462.0">
        <route edges="s_t t_e"/>
    </vehicle>
    <vehicle id="23" depart="464.0">
        <route edges="s_t t_w"/>
    </vehicle>
    <vehicle id="24" depart="465.0">
        <route edges="e_t t_s s_t t_e"/>
    </vehicle>
    <vehicle id="25" depart="475.0">
        <route edges="e_t t_s"/>
    </vehicle>
    <vehicle id="26" depart="477.0">
        <route edges="e_t t_s s_t t_e"/>
    </vehicle>
    <vehicle id="27" depart="490.0">
        <route edges="n_t t_w"/>
    </vehicle>
    <vehicle id="28" depart="502.0">
        <route edges="n_t t_e e_t t_n"/>
    </vehicle>
    <vehicle id="29" depart="503.0">
        <route edges="s_t t_e"/>
    </vehicle>
    <vehicle id="30" depart="511.0">
        <route edges="s_t t_e"/>
    </vehicle>
    <vehicle id="31" depart="514.0">
        <route edges="s_t t_w"/>
    </vehicle>
    <vehicle id="32" depart="518.0">
        <route edges="e_t t_s"/>
    </vehicle>
    <vehicle id="33" depart="535.0">
        <route edges="s_t t_e"/>
    </vehicle>
    <vehicle id="34" depart="540.0">
        <route edges="n_t t_w"/>
    </vehicle>
    <vehicle id="35" depart="548.0">
        <route edges="w_t t_e"/>
    </vehicle>
    <vehicle id="36" depart="549.0">
        <route edges="s_t t_w"/>
    </vehicle>
    <vehicle id="37" depart="555.0">
        <route edges="e_t t_s"/>
    </vehicle>
    <vehicle id="38" depart="557.0">
        <route edges="e_t t_n"/>
    </vehicle>
    <vehicle id="39" depart="558.0">
        <route edges="s_t t_e e_t t_s"/>
    </vehicle>
    <vehicle id="40" depart="564.0">
        <route edges="w_t t_e"/>
    </vehicle>
    <vehicle id="41" depart="566.0">
        <route edges="n_t t_w"/>
    </vehicle>
    <vehicle id="42" depart="567.0">
        <route edges="s_t t_n"/>
    </vehicle>
    <vehicle id="43" depart="570.0">
        <route edges="n_t t_w"/>
    </vehicle>
    <vehicle id="44" depart="574.0">
        <route edges="s_t t_e"/>
    </vehicle>
    <vehicle id="45" depart="582.0">
        <route edges="w_t t_n"/>
    </vehicle>
    <vehicle id="46" depart="584.0">
        <route edges="n_t t_e"/>
    </vehicle>
    <vehicle id="47" depart="589.0">
        <route edges="n_t t_e e_t t_n"/>
    </vehicle>
    <vehicle id="48" depart="591.0">
        <route edges="e_t t_s"/>
    </vehicle>
    <vehicle id="49" depart="599.0">
        <route edges="e_t t_w"/>
    </vehicle>
    <vehicle id="50" depart="604.0">
        <route edges="e_t t_w"/>
    </vehicle>
    <vehicle id="51" depart="614.0">
        <route edges="w_t t_n"/>
    </vehicle>
    <vehicle id="52" depart="619.0">
        <route edges="s_t t_e"/>
    </vehicle>
    <vehicle id="53" depart="619.0">
        <route edges="s_t t_n"/>
    </vehicle>
    <vehicle id="54" depart="626.0">
        <route edges="e_t t_w"/>
    </vehicle>
    <vehicle id="55" depart="631.0">
        <route edges="n_t t_e e_t t_n"/>
    </vehicle>
    <vehicle id="56" depart="633.0">
        <route edges="w_t t_n"/>
    </vehicle>
    <vehicle id="57" depart="636.0">
        <route edges="s_t t_e"/>
    </vehicle>
    <vehicle id="58" depart="638.0">
        <route edges="w_t t_n"/>
    </vehicle>
    <vehicle id="59" depart="642.0">
        <route edges="e_t t_w"/>
    </vehicle>
    <vehicle id="60" depart="644.0">
        <route edges="e_t t_w"/>
    </vehicle>
    <vehicle id="61" depart="647.0">
        <route edges="w_t t_s"/>
    </vehicle>
    <vehicle id="62" depart="653.0">
        <route edges="e_t t_s s_t t_e"/>
    </vehicle>
    <vehicle id="63" depart="666.0">
        <route edges="e_t t_n"/>
    </vehicle>
    <vehicle id="64" depart="670.0">
        <route edges="s_t t_w"/>
    </vehicle>
    <vehicle id="65" depart="680.0">
        <route edges="n_t t_e"/>
    </vehicle>
    <vehicle id="66" depart="687.0">
        <route edges="s_t t_e"/>
    </vehicle>
    <vehicle id="67" depart="690.0">
        <route edges="e_t t_s"/>
    </vehicle>
    <vehicle id="68" depart="695.0">
        <route edges="s_t t_e"/>
    </vehicle>
    <vehicle id="69" depart="709.0">
        <route edges="n_t t_s"/>
    </vehicle>
    <vehicle id="70" depart="709.0">
        <route edges="w_t t_n"/>
    </vehicle>
    <vehicle id="71" depart="709.0">
        <route edges="w_t t_e"/>
    </vehicle>
    <vehicle id="72" depart="712.0">
        <route edges="s_t t_w"/>
    </vehicle>
    <vehicle id="73" depart="717.0">
        <route edges="w_t t_n"/>
    </vehicle>
    <vehicle id="74" depart="726.0">
        <route edges="e_t t_s s_t t_e"/>
    </vehicle>
    <vehicle id="75" depart="726.0">
        <route edges="s_t t_e"/>
    </vehicle>
    <vehicle id="76" depart="728.0">
        <route edges="s_t t_e"/>
    </vehicle>
    <vehicle id="77" depart="729.0">
        <route edges="w_t t_e"/>
    </vehicle>
    <vehicle id="78" depart="729.0">
        <route edges="e_t t_s s_t t_e"/>
    </vehicle>
    <vehicle id="79" depart="734.0">
        <route edges="n_t t_s"/>
    </vehicle>
    <vehicle id="80" depart="736.0">
        <route edges="n_t t_e"/>
    </vehicle>
    <vehicle id="81" depart="736.0">
        <route edges="n_t t_w"/>
    </vehicle>
    <vehicle id="82" depart="737.0">
        <route edges="s_t t_w"/>
    </vehicle>
    <vehicle id="83" depart="742.0">
        <route edges="e_t t_w"/>
    </vehicle>
    <vehicle id="84" depart="755.0">
        <route edges="w_t t_s"/>
    </vehicle>
    <vehicle id="85" depart="759.0">
        <route edges="s_t t_e e_t t_s"/>
    </vehicle>
    <vehicle id="86" depart="761.0">
        <route edges="w_t t_e"/>
    </vehicle>
    <vehicle id="87" depart="762.0">
        <route edges="s_t t_e e_t t_s"/>
    </vehicle>
    <vehicle id="88" depart="778.0">
        <route edges="n_t t_s"/>
    </vehicle>
    <vehicle id="89" depart="787.0">
        <route edges="s_t t_e"/>
    </vehicle>
    <vehicle id="90" depart="796.0">
        <route edges="s_t t_n"/>
    </vehicle>
    <vehicle id="91" depart="798.0">
        <route edges="n_t t_s"/>
    </vehicle>
    <vehicle id="92" depart="804.0">
        <route edges="e_t t_s"/>
    </vehicle>
    <vehicle id="93" depart="811.0">
        <route edges="n_t t_w"/>
    </vehicle>
    <vehicle id="94" depart="813.0">
        <route edges="e_t t_w"/>
    </vehicle>
    <vehicle id="95" depart="817.0">
        <route edges="s_t t_e e_t t_s"/>
    </vehicle>
    <vehicle id="96" depart="820.0">
        <route edges="w_t t_e"/>
    </vehicle>
    <vehicle id="97" depart="820.0">
        <route edges="s_t t_e e_t t_s"/>
    </vehicle>
    <vehicle id="98" depart="825.0">
        <route edges="s_t t_n"/>
    </vehicle>
    <vehicle id="99" depart="828.0">
        <route edges="e_t t_s s_t t_e"/>
    </vehicle>
    <vehicle id="100" depart="836.0">
        <route edges="s_t t_e"/>
    </vehicle>
    <vehicle id="101" depart="840.0">
        <route edges="e_t t_n"/>
    </vehicle>
    <vehicle id="102" depart="851.0">
        <route edges="n_t t_s"/>
    </vehicle>
    <vehicle id="103" depart="857.0">
        <route edges="e_t t_w"/>
    </vehicle>
    <vehicle id="104" depart="860.0">
        <route edges="n_t t_w"/>
    </vehicle>
    <vehicle id="105" depart="875.0">
        <route edges="e_t t_w"/>
    </vehicle>
    <vehicle id="106" depart="883.0">
        <route edges="s_t t_w"/>
    </vehicle>
    <vehicle id="107" depart="887.0">
        <route edges="w_t t_n n_t t_w"/>
    </vehicle>
    <vehicle id="108" depart="890.0">
        <route edges="e_t t_n"/>
    </vehicle>
    <vehicle id="109" depart="902.0">
        <route edges="e_t t_w"/>
    </vehicle>
    <vehicle id="110" depart="904.0">
        <route edges="e_t t_s s_t t_e"/>
    </vehicle>
    <vehicle id="111" depart="916.0">
        <route edges="e_t t_s s_t t_e"/>
    </vehicle>
    <vehicle id="112" depart="924.0">
        <route edges="w_t t_n n_t t_w"/>
    </vehicle>
    <vehicle id="113" depart="925.0">
        <route edges="n_t t_s"/>
    </vehicle>
    <vehicle id="114" depart="925.0">
        <route edges="n_t t_s"/>
    </vehicle>
    <vehicle id="115" depart="930.0">
        <route edges="n_t t_s"/>
    </vehicle>
    <vehicle id="116" depart="933.0">
        <route edges="e_t t_n"/>
    </vehicle>
    <vehicle id="117" depart="936.0">
        <route edges="s_t t_e"/>
    </vehicle>
    <vehicle id="118" depart="938.0">
        <route edges="n_t t_w"/>
    </vehicle>
    <vehicle id="119" depart="939.0">
        <route edges="e_t t_s s_t t_e"/>
    </vehicle>
    <vehicle id="120" depart="942.0">
        <route edges="w_t t_e"/>
    </vehicle>
    <vehicle id="121" depart="946.0">
        <route edges="n_t t_w"/>
    </vehicle>
    <vehicle id="122" depart="951.0">
        <route edges="s_t t_e"/>
    </vehicle>
    <vehicle id="123" depart="954.0">
        <route edges="e_t t_n"/>
    </vehicle>
    <vehicle id="124" depart="960.0">
        <route edges="n_t t_w"/>
    </vehicle>
    <vehicle id="125" depart="963.0">
        <route edges="w_t t_n n_t t_w"/>
    </vehicle>
    <vehicle id="126" depart="979.0">
        <route edges="w_t t_n n_t t_w"/>
    </vehicle>
    <vehicle id="127" depart="979.0">
        <route edges="w_t t_n n_t t_w"/>
    </vehicle>
    <vehicle id="128" depart="980.0">
        <route edges="w_t t_e"/>
    </vehicle>
    <vehicle id="129" depart="988.0">
        <route edges="n_t t_e"/>
    </vehicle>
    <vehicle id="130" depart="994.0">
        <route edges="s_t t_n"/>
    </vehicle>
    <vehicle id="131" depart="998.0">
        <route edges="n_t t_w"/>
    </vehicle>
    <vehicle id="132" depart="1000.0">
        <route edges="n_t t_e"/>
    </vehicle>
    <vehicle id="133" depart="1004.0">
        <route edges="n_t t_e e_t t_n"/>
    </vehicle>
    <vehicle id="134" depart="1009.0">
        <route edges="s_t t_e e_t t_s"/>
    </vehicle>
    <vehicle id="135" depart="1024.0">
        <route edges="n_t t_e"/>
    </vehicle>
    <vehicle id="136" depart="1028.0">
        <route edges="n_t t_e e_t t_n"/>
    </vehicle>
    <vehicle id="137" depart="1033.0">
        <route edges="e_t t_s"/>
    </vehicle>
    <vehicle id="138" depart="1042.0">
        <route edges="e_t t_s"/>
    </vehicle>
    <vehicle id="139" depart="1043.0">
        <route edges="s_t t_e"/>
    </vehicle>
    <vehicle id="140" depart="1043.0">
        <route edges="s_t t_n"/>
    </vehicle>
    <vehicle id="141" depart="1045.0">
        <route edges="n_t t_s"/>
    </vehicle>
    <vehicle id="142" depart="1052.0">
        <route edges="w_t t_n n_t t_w"/>
    </vehicle>
    <vehicle id="143" depart="1054.0">
        <route edges="s_t t_e"/>
    </vehicle>
    <vehicle id="144" depart="1057.0">
        <route edges="s_t t_n"/>
    </vehicle>
    <vehicle id="145" depart="1060.0">
        <route edges="e_t t_s"/>
    </vehicle>
    <vehicle id="146" depart="1070.0">
        <route edges="n_t t_w"/>
    </vehicle>
    <vehicle id="147" depart="1071.0">
        <route edges="n_t t_w"/>
    </vehicle>
    <vehicle id="148" depart="1087.0">
        <route edges="s_t t_e"/>
    </vehicle>
    <vehicle id="149" depart="1097.0">
        <route edges="s_t t_n"/>
    </vehicle>
    <vehicle id="150" depart="1106.0">
        <route edges="s_t t_e"/>
    </vehicle>
    <vehicle id="151" depart="1106.0">
        <route edges="e_t t_w"/>
    </vehicle>
    <vehicle id="152" depart="1109.0">
        <route edges="e_t t_s s_t t_e"/>
    </vehicle>
    <vehicle id="153" depart="1109.0">
        <route edges="e_t t_s s_t t_e"/>
    </vehicle>
    <vehicle id="154" depart="1109.0">
        <route edges="w_t t_n n_t t_w"/>
    </vehicle>
    <vehicle id="155" depart="1111.0">
        <route edges="s_t t_n"/>
    </vehicle>
    <vehicle id="156" depart="1112.0">
        <route edges="w_t t_s"/>
    </vehicle>
    <vehicle id="157" depart="1114.0">
        <route edges="e_t t_s"/>
    </vehicle>
    <vehicle id="158" depart="1123.0">
        <route edges="n_t t_e e_t t_n"/>
    </vehicle>
    <vehicle id="159" depart="1123.0">
        <route edges="n_t t_e e_t t_n"/>
    </vehicle>
    <vehicle id="160" depart="1130.0">
        <route edges="e_t t_s"/>
    </vehicle>
    <vehicle id="161" depart="1131.0">
        <route edges="w_t t_s"/>
    </vehicle>
    <vehicle id="162" depart="1132.0">
        <route edges="e_t t_s"/>
    </vehicle>
    <vehicle id="163" depart="1135.0">
        <route edges="e_t t_n"/>
    </vehicle>
    <vehicle id="164" depart="1147.0">
        <route edges="w_t t_s"/>
    </vehicle>
    <vehicle id="165" depart="1149.0">
        <route edges="w_t t_n n_t t_w"/>
    </vehicle>
    <vehicle id="166" depart="1151.0">
        <route edges="n_t t_e"/>
    </vehicle>
    <vehicle id="167" depart="1160.0">
        <route edges="n_t t_s"/>
    </vehicle>
    <vehicle id="168" depart="1160.0">
        <route edges="e_t t_n"/>
    </vehicle>
    <vehicle id="169" depart="1168.0">
        <route edges="s_t t_n"/>
    </vehicle>
    <vehicle id="170" depart="1168.0">
        <route edges="s_t t_e e_t t_s"/>
    </vehicle>
    <vehicle id="171" depart="1174.0">
        <route edges="w_t t_e"/>
    </vehicle>
    <vehicle id="172" depart="1185.0">
        <route edges="e_t t_w"/>
    </vehicle>
    <vehicle id="173" depart="1191.0">
        <route edges="s_t t_e"/>
    </vehicle>
    <vehicle id="174" depart="1192.0">
        <route edges="e_t t_s s_t t_e"/>
    </vehicle>
    <vehicle id="175" depart="1199.0">
        <route edges="s_t t_w"/>
    </vehicle>
    <vehicle id="176" depart="1204.0">
        <route edges="e_t t_s s_t t_e"/>
    </vehicle>
    <vehicle id="177" depart="1208.0">
        <route edges="s_t t_n"/>
    </vehicle>
    <vehicle id="178" depart="1212.0">
        <route edges="w_t t_n n_t t_w"/>
    </vehicle>
    <vehicle id="179" depart="1219.0">
        <route edges="w_t t_s"/>
    </vehicle>
    <vehicle id="180" depart="1237.0">
        <route edges="n_t t_e"/>
    </vehicle>
    <vehicle id="181" depart="1241.0">
        <route edges="w_t t_n"/>
    </vehicle>
    <vehicle id="182" depart="1243.0">
        <route edges="n_t t_s"/>
    </vehicle>
    <vehicle id="183" depart="1246.0">
        <route edges="w_t t_s"/>
    </vehicle>
    <vehicle id="184" depart="1247.0">
        <route edges="w_t t_n n_t t_w"/>
    </vehicle>
    <vehicle id="185" depart="1247.0">
        <route edges="e_t t_n"/>
    </vehicle>
    <vehicle id="186" depart="1251.0">
        <route edges="w_t t_n n_t t_w"/>
    </vehicle>
    <vehicle id="187" depart="1262.0">
        <route edges="w_t t_e"/>
    </vehicle>
    <vehicle id="188" depart="1262.0">
        <route edges="s_t t_w"/>
    </vehicle>
    <vehicle id="189" depart="1273.0">
        <route edges="s_t t_e e_t t_s"/>
    </vehicle>
    <vehicle id="190" depart="1275.0">
        <route edges="w_t t_e"/>
    </vehicle>
    <vehicle id="191" depart="1275.0">
        <route edges="e_t t_w"/>
    </vehicle>
    <vehicle id="192" depart="1279.0">
        <route edges="s_t t_e"/>
    </vehicle>
    <vehicle id="193" depart="1283.0">
        <route edges="w_t t_n"/>
    </vehicle>
    <vehicle id="194" depart="1287.0">
        <route edges="e_t t_n"/>
    </vehicle>
    <vehicle id="195" depart="1290.0">
        <route edges="e_t t_n"/>
    </vehicle>
    <vehicle id="196" depart="1294.0">
        <route edges="w_t t_n"/>
    </vehicle>
    <vehicle id="197" depart="1299.0">
        <route edges="w_t t_e"/>
    </vehicle>
    <vehicle id="198" depart="1301.0">
        <route edges="e_t t_s s_t t_e"/>
    </vehicle>
    <vehicle id="199" depart="1302.0">
        <route edges="s_t t_e"/>
    </vehicle>
    <vehicle id="200" depart="1305.0">
        <route edges="s_t t_e e_t t_s"/>
    </vehicle>
    <vehicle id="201" depart="1306.0">
        <route edges="s_t t_w"/>
    </vehicle>
    <vehicle id="202" depart="1309.0">
        <route edges="w_t t_n n_t t_w"/>
    </vehicle>
    <vehicle id="203" depart="1313.0">
        <route edges="e_t t_n"/>
    </vehicle>
    <vehicle id="204" depart="1322.0">
        <route edges="w_t t_n"/>
    </vehicle>
    <vehicle id="205" depart="1330.0">
        <route edges="n_t t_e e_t t_n"/>
    </vehicle>
    <vehicle id="206" depart="1339.0">
        <route edges="e_t t_w"/>
    </vehicle>
    <vehicle id="207" depart="1340.0">
        <route edges="s_t t_e"/>
    </vehicle>
    <vehicle id="208" depart="1340.0">
        <route edges="w_t t_s"/>
    </vehicle>
    <vehicle id="209" depart="1346.0">
        <route edges="n_t t_s"/>
    </vehicle>
    <vehicle id="210" depart="1353.0">
        <route edges="w_t t_n"/>
    </vehicle>
    <vehicle id="211" depart="1363.0">
        <route edges="e_t t_s s_t t_e"/>
    </vehicle>
    <vehicle id="212" depart="1363.0">
        <route edges="e_t t_s"/>
    </vehicle>
    <vehicle id="213" depart="1365.0">
        <route edges="n_t t_w"/>
    </vehicle>
    <vehicle id="214" depart="1367.0">
        <route edges="e_t t_s s_t t_e"/>
    </vehicle>
    <vehicle id="215" depart="1369.0">
        <route edges="n_t t_e"/>
    </vehicle>
    <vehicle id="216" depart="1373.0">
        <route edges="n_t t_e"/>
    </vehicle>
    <vehicle id="217" depart="1378.0">
        <route edges="e_t t_s"/>
    </vehicle>
    <vehicle id="218" depart="1386.0">
        <route edges="w_t t_n"/>
    </vehicle>
    <vehicle id="219" depart="1390.0">
        <route edges="s_t t_n"/>
    </vehicle>
    <vehicle id="220" depart="1394.0">
        <route edges="w_t t_s"/>
    </vehicle>
    <vehicle id="221" depart="1396.0">
        <route edges="e_t t_s"/>
    </vehicle>
    <vehicle id="222" depart="1411.0">
        <route edges="e_t t_s s_t t_e"/>
    </vehicle>
    <vehicle id="223" depart="1412.0">
        <route edges="e_t t_w"/>
    </vehicle>
    <vehicle id="224" depart="1412.0">
        <route edges="s_t t_n"/>
    </vehicle>
    <vehicle id="225" depart="1424.0">
        <route edges="s_t t_e e_t t_s"/>
    </vehicle>
    <vehicle id="226" depart="1424.0">
        <route edges="e_t t_s"/>
    </vehicle>
    <vehicle id="227" depart="1427.0">
        <route edges="s_t t_w"/>
    </vehicle>
    <vehicle id="228" depart="1431.0">
        <route edges="e_t t_s"/>
    </vehicle>
    <vehicle id="229" depart="1432.0">
        <route edges="s_t t_w"/>
    </vehicle>
    <vehicle id="230" depart="1436.0">
        <route edges="n_t t_s"/>
    </vehicle>
    <vehicle id="231" depart="1436.0">
        <route edges="w_t t_n"/>
    </vehicle>
    <vehicle id="232" depart="1438.0">
        <route edges="s_t t_w"/>
    </vehicle>
    <vehicle id="233" depart="1439.0">
        <route edges="e_t t_w"/>
    </vehicle>
    <vehicle id="234" depart="1441.0">
        <route edges="n_t t_e e_t t_n"/>
    </vehicle>
    <vehicle id="235" depart="1447.0">
        <route edges="n_t t_w"/>
    </vehicle>
    <vehicle id="236" depart="1456.0">
        <route edges="s_t t_e e_t t_s"/>
    </vehicle>
    <vehicle id="237" depart="1457.0">
        <route edges="e_t t_w"/>
    </vehicle>
    <vehicle id="238" depart="1462.0">
        <route edges="w_t t_s"/>
    </vehicle>
    <vehicle id="239" depart="1463.0">
        <route edges="e_t t_n"/>
    </vehicle>
    <vehicle id="240" depart="1465.0">
        <route edges="n_t t_e"/>
    </vehicle>
    <vehicle id="241" depart="1468.0">
        <route edges="w_t t_n"/>
    </vehicle>
    <vehicle id="242" depart="1470.0">
        <route edges="w_t t_e"/>
    </vehicle>
    <vehicle id="243" depart="1471.0">
        <route edges="s_t t_w"/>
    </vehicle>
    <vehicle id="244" depart="1471.0">
        <route edges="s_t t_n"/>
    </vehicle>
    <vehicle id="245" depart="1472.0">
        <route edges="e_t t_n"/>
    </vehicle>
    <vehicle id="246" depart="1489.0">
        <route edges="n_t t_w"/>
    </vehicle>
    <vehicle id="247" depart="1493.0">
        <route edges="w_t t_n n_t t_w"/>
    </vehicle>
    <vehicle id="248" depart="1495.0">
        <route edges="w_t t_e"/>
    </vehicle>
    <vehicle id="249" depart="1495.0">
        <route edges="e_t t_n"/>
    </vehicle>
    <vehicle id="250" depart="1495.0">
        <route edges="e_t t_s s_t t_e"/>
    </vehicle>
    <vehicle id="251" depart="1499.0">
        <route edges="s_t t_e"/>
    </vehicle>
    <vehicle id="252" depart="1501.0">
        <route edges="s_t t_n"/>
    </vehicle>
    <vehicle id="253" depart="1506.0">
        <route edges="n_t t_w"/>
    </vehicle>
    <vehicle id="254" depart="1510.0">
        <route edges="e_t t_w"/>
    </vehicle>
    <vehicle id="255" depart="1513.0">
        <route edges="s_t t_e e_t t_s"/>
    </vehicle>
    <vehicle id="256" depart="1513.0">
        <route edges="e_t t_s"/>
    </vehicle>
    <vehicle id="257" depart="1516.0">
        <route edges="w_t t_e"/>
    </vehicle>
    <vehicle id="258" depart="1521.0">
        <route edges="n_t t_s"/>
    </vehicle>
    <vehicle id="259" depart="1521.0">
        <route edges="n_t t_w"/>
    </vehicle>
    <vehicle id="260" depart="1526.0">
        <route edges="s_t t_n"/>
    </vehicle>
    <vehicle id="261" depart="1536.0">
        <route edges="s_t t_w"/>
    </vehicle>
    <vehicle id="262" depart="1550.0">
        <route edges="n_t t_s"/>
    </vehicle>
    <vehicle id="263" depart="1557.0">
        <route edges="s_t t_n"/>
    </vehicle>
    <vehicle id="264" depart="1560.0">
        <route edges="e_t t_n"/>
    </vehicle>
    <vehicle id="265" depart="1561.0">
        <route edges="w_t t_s"/>
    </vehicle>
    <vehicle id="266" depart="1571.0">
        <route edges="e_t t_n"/>
    </vehicle>
    <vehicle id="267" depart="1571.0">
        <route edges="s_t t_e e_t t_s"/>
    </vehicle>
    <vehicle id="268" depart="1579.0">
        <route edges="e_t t_s"/>
    </vehicle>
    <vehicle id="269" depart="1590.0">
        <route edges="s_t t_e e_t t_s"/>
    </vehicle>
    <vehicle id="270" depart="1591.0">
        <route edges="w_t t_s"/>
    </vehicle>
    <vehicle id="271" depart="1592.0">
        <route edges="e_t t_n"/>
    </vehicle>
    <vehicle id="272" depart="1594.0">
        <route edges="s_t t_e"/>
    </vehicle>
    <vehicle id="273" depart="1597.0">
        <route edges="w_t t_s"/>
    </vehicle>
    <vehicle id="274" depart="1599.0">
        <route edges="w_t t_e"/>
    </vehicle>
    <vehicle id="275" depart="1604.0">
        <route edges="e_t t_w"/>
    </vehicle>
    <vehicle id="276" depart="1610.0">
        <route edges="s_t t_n"/>
    </vehicle>
    <vehicle id="277" depart="1613.0">
        <route edges="s_t t_w"/>
    </vehicle>
    <vehicle id="278" depart="1613.0">
        <route edges="n_t t_w"/>
    </vehicle>
    <vehicle id="279" depart="1619.0">
        <route edges="e_t t_w"/>
    </vehicle>
    <vehicle id="280" depart="1625.0">
        <route edges="s_t t_n"/>
    </vehicle>
    <vehicle id="281" depart="1627.0">
        <route edges="n_t t_w"/>
    </vehicle>
    <vehicle id="282" depart="1628.0">
        <route edges="n_t t_s"/>
    </vehicle>
    <vehicle id="283" depart="1631.0">
        <route edges="w_t t_n n_t t_w"/>
    </vehicle>
    <vehicle id="284" depart="1633.0">
        <route edges="n_t t_w"/>
    </vehicle>
    <vehicle id="285" depart="1640.0">
        <route edges="s_t t_w"/>
    </vehicle>
    <vehicle id="286" depart="1668.0">
        <route edges="e_t t_n"/>
    </vehicle>
    <vehicle id="287" depart="1711.0">
        <route edges="n_t t_w"/>
    </vehicle>
    <vehicle id="288" depart="1716.0">
        <route edges="n_t t_e"/>
    </vehicle>
    <vehicle id="289" depart="1724.0">
        <route edges="e_t t_w"/>
    </vehicle>
    <vehicle id="290" depart="1728.0">
        <route edges="w_t t_s"/>
    </vehicle>
    <vehicle id="291" depart="1732.0">
        <route edges="e_t t_w"/>
    </vehicle>
    <vehicle id="292" depart="1733.0">
        <route edges="w_t t_n"/>
    </vehicle>
    <vehicle id="293" depart="1736.0">
        <route edges="n_t t_e e_t t_n"/>
    </vehicle>
    <vehicle id="294" depart="1740.0">
        <route edges="e_t t_s"/>
    </vehicle>
    <vehicle id="295" depart="1745.0">
        <route edges="e_t t_s s_t t_e"/>
    </vehicle>
    <vehicle id="296" depart="1749.0">
        <route edges="w_t t_e"/>
    </vehicle>
    <vehicle id="297" depart="1752.0">
        <route edges="w_t t_n n_t t_w"/>
    </vehicle>
    <vehicle id="298" depart="1752.0">
        <route edges="n_t t_e e_t t_n"/>
    </vehicle>
    <vehicle id="299" depart="1752.0">
        <route edges="e_t t_s"/>
    </vehicle>
    <vehicle id="300" depart="1756.0">
        <route edges="w_t t_s"/>
    </vehicle>
    <vehicle id="301" depart="1759.0">
        <route edges="n_t t_s"/>
    </vehicle>
    <vehicle id="302" depart="1760.0">
        <route edges="n_t t_s"/>
    </vehicle>
    <vehicle id="303" depart="1761.0">
        <route edges="n_t t_e"/>
    </vehicle>
    <vehicle id="304" depart="1765.0">
        <route edges="s_t t_n"/>
    </vehicle>
    <vehicle id="305" depart="1766.0">
        <route edges="w_t t_s"/>
    </vehicle>
    <vehicle id="306" depart="1767.0">
        <route edges="e_t t_s s_t t_e"/>
    </vehicle>
    <vehicle id="307" depart="1771.0">
        <route edges="s_t t_e"/>
    </vehicle>
    <vehicle id="308" depart="1775.0">
        <route edges="n_t t_s"/>
    </vehicle>
    <vehicle id="309" depart="1777.0">
        <route edges="w_t t_n"/>
    </vehicle>
    <vehicle id="310" depart="1790.0">
        <route edges="s_t t_w"/>
    </vehicle>
    <vehicle id="311" depart="1791.0">
        <route edges="e_t t_n"/>
    </vehicle>
    <vehicle id="312" depart="1796.0">
        <route edges="w_t t_n"/>
    </vehicle>
    <vehicle id="313" depart="1798.0">
        <route edges="w_t t_e"/>
    </vehicle>
    <vehicle id="314" depart="1803.0">
        <route edges="e_t t_n"/>
    </vehicle>
    <vehicle id="315" depart="1803.0">
        <route edges="n_t t_e e_t t_n"/>
    </vehicle>
    <vehicle id="316" depart="1808.0">
        <route edges="e_t t_n"/>
    </vehicle>
    <vehicle id="317" depart="1815.0">
        <route edges="w_t t_n n_t t_w"/>
    </vehicle>
    <vehicle id="318" depart="1820.0">
        <route edges="s_t t_n"/>
    </vehicle>
    <vehicle id="319" depart="1829.0">
        <route edges="s_t t_e"/>
    </vehicle>
    <vehicle id="320" depart="1829.0">
        <route edges="e_t t_w"/>
    </vehicle>
    <vehicle id="321" depart="1833.0">
        <route edges="n_t t_e"/>
    </vehicle>
    <vehicle id="322" depart="1835.0">
        <route edges="w_t t_e"/>
    </vehicle>
    <vehicle id="323" depart="1835.0">
        <route edges="e_t t_s s_t t_e"/>
    </vehicle>
    <vehicle id="324" depart="1839.0">
        <route edges="w_t t_s"/>
    </vehicle>
    <vehicle id="325" depart="1851.0">
        <route edges="e_t t_s s_t t_e"/>
    </vehicle>
    <vehicle id="326" depart="1859.0">