<?xml version="1.0" encoding="UTF-8"?>

<!-- generated on 2023-06-30 22:45:17.182136 by randomTrips.py UNKNOWN
<configuration>
    <net-file value="nets/2way-single-intersection/single-intersection.net.xml"/>
    <route-file value="training/routes/2x2_tr_ep15.rou.xml"/>
    <seed value="15"/>
    <validate value="True"/>
    <end value="500.0"/>
</configuration>
-->

<!-- generated on 2023-06-30 22:45:17 by Eclipse SUMO duarouter Version v1_17_0+1256-16eabe86c67
<configuration xmlns:xsi="http://www.w3.org/2001/XMLSchema-instance" xsi:noNamespaceSchemaLocation="http://sumo.dlr.de/xsd/duarouterConfiguration.xsd">

    <input>
        <net-file value="nets/2way-single-intersection/single-intersection.net.xml"/>
        <route-files value="trips.trips.xml"/>
    </input>

    <output>
        <output-file value="training/routes/2x2_tr_ep15.rou.xml"/>
        <alternatives-output value="NUL"/>
    </output>

    <time>
        <begin value="0"/>
        <end value="500.0"/>
    </time>

    <report>
        <no-warnings value="true"/>
        <ignore-errors value="true"/>
        <no-step-log value="true"/>
    </report>

</configuration>
-->

<routes xmlns:xsi="http://www.w3.org/2001/XMLSchema-instance" xsi:noNamespaceSchemaLocation="http://sumo.dlr.de/xsd/routes_file.xsd">
    <vehicle id="0" depart="82.0">
        <route edges="w_t t_e"/>
    </vehicle>
    <vehicle id="1" depart="133.0">
        <route edges="s_t t_e"/>
    </vehicle>
    <vehicle id="2" depart="136.0">
        <route edges="w_t t_e"/>
    </vehicle>
    <vehicle id="3" depart="165.0">
        <route edges="w_t t_s"/>
    </vehicle>
    <vehicle id="4" depart="186.0">
        <route edges="w_t t_n n_t t_w"/>
    </vehicle>
    <vehicle id="5" depart="194.0">
        <route edges="e_t t_n"/>
    </vehicle>
    <vehicle id="6" depart="198.0">
        <route edges="s_t t_n"/>
    </vehicle>
    <vehicle id="7" depart="212.0">
        <route edges="n_t t_e"/>
    </vehicle>
    <vehicle id="8" depart="219.0">
        <route edges="w_t t_n n_t t_w"/>
    </vehicle>
    <vehicle id="9" depart="225.0">
        <route edges="w_t t_e"/>
    </vehicle>
    <vehicle id="10" depart="255.0">
        <route edges="w_t t_s"/>
    </vehicle>
    <vehicle id="11" depart="279.0">
        <route edges="e_t t_n"/>
    </vehicle>
    <vehicle id="12" depart="281.0">
        <route edges="n_t t_e"/>
    </vehicle>
    <vehicle id="13" depart="285.0">
        <route edges="s_t t_n"/>
    </vehicle>
    <vehicle id="14" depart="311.0">
        <route edges="s_t t_w"/>
    </vehicle>
    <vehicle id="15" depart="344.0">
        <route edges="s_t t_n"/>
    </vehicle>
    <vehicle id="16" depart="354.0">
        <route edges="w_t t_n n_t t_w"/>
    </vehicle>
    <vehicle id="17" depart="359.0">
        <route edges="n_t t_w"/>
    </vehicle>
    <vehicle id="18" depart="363.0">
        <route edges="e_t t_s s_t t_e"/>
    </vehicle>
    <vehicle id="19" depart="372.0">
        <route edges="e_t t_w"/>
    </vehicle>
    <vehicle id="20" depart="376.0">
        <route edges="s_t t_e e_t t_s"/>
    </vehicle>
    <vehicle id="21" depart="380.0">
        <route edges="n_t t_e e_t t_n"/>
    </vehicle>
    <vehicle id="22" depart="391.0">
        <route edges="w_t t_e"/>
    </vehicle>
    <vehicle id="23" depart="395.0">
        <route edges="e_t t_s s_t t_e"/>
    </vehicle>
    <vehicle id="24" depart="412.0">
        <route edges="n_t t_w"/>
    </vehicle>
    <vehicle id="25" depart="413.0">
        <route edges="s_t t_n"/>
    </vehicle>
    <vehicle id="26" depart="427.0">
        <route edges="s_t t_e"/>
    </vehicle>
    <vehicle id="27" depart="427.0">
        <route edges="w_t t_n"/>
    </vehicle>
    <vehicle id="28" depart="432.0">
        <route edges="e_t t_n"/>
    </vehicle>
    <vehicle id="29" depart="441.0">
        <route edges="w_t t_n"/>
    </vehicle>
    <vehicle id="30" depart="457.0">
        <route edges="w_t t_n"/>
    </vehicle>
    <vehicle id="31" depart="458.0">
        <route edges="n_t t_e"/>
    </vehicle>
    <vehicle id="32" depart="467.0">
        <route edges="w_t t_n n_t t_w"/>
    </vehicle>
    <vehicle id="33" depart="468.0">
        <route edges="n_t t_e"/>
    </vehicle>
    <vehicle id="34" depart="482.0">
        <route edges="n_t t_e e_t t_n"/>
    </vehicle>
    <vehicle id="35" depart="483.0">
        <route edges="w_t t_n n_t t_w"/>
    </vehicle>
    <vehicle id="36" depart="491.0">
        <route edges="s_t t_n"/>
    </vehicle>
    <vehicle id="37" depart="494.0">
        <route edges="e_t t_w"/>
    </vehicle>
    <vehicle id="38" depart="495.0">
        <route edges="w_t t_e"/>
    </vehicle>
    <vehicle id="39" depart="513.0">
        <route edges="n_t t_e e_t t_n"/>
    </vehicle>
    <vehicle id="40" depart="519.0">
        <route edges="w_t t_e"/>
    </vehicle>
    <vehicle id="41" depart="536.0">
        <route edges="e_t t_w"/>
    </vehicle>
    <vehicle id="42" depart="538.0">
        <route edges="s_t t_n"/>
    </vehicle>
    <vehicle id="43" depart="539.0">
        <route edges="w_t t_s"/>
    </vehicle>
    <vehicle id="44" depart="541.0">
        <route edges="s_t t_n"/>
    </vehicle>
    <vehicle id="45" depart="543.0">
        <route edges="e_t t_s s_t t_e"/>
    </vehicle>
    <vehicle id="46" depart="547.0">
        <route edges="n_t t_s"/>
    </vehicle>
    <vehicle id="47" depart="548.0">
        <route edges="n_t t_e e_t t_n"/>
    </vehicle>
    <vehicle id="48" depart="550.0">
        <route edges="s_t t_e e_t t_s"/>
    </vehicle>
    <vehicle id="49" depart="557.0">
        <route edges="s_t t_n"/>
    </vehicle>
    <vehicle id="50" depart="579.0">
        <route edges="w_t t_n n_t t_w"/>
    </vehicle>
    <vehicle id="51" depart="580.0">
        <route edges="w_t t_n n_t t_w"/>
    </vehicle>
    <vehicle id="52" depart="584.0">
        <route edges="e_t t_s"/>
    </vehicle>
    <vehicle id="53" depart="585.0">
        <route edges="n_t t_e e_t t_n"/>
    </vehicle>
    <vehicle id="54" depart="606.0">
        <route edges="s_t t_e"/>
    </vehicle>
    <vehicle id="55" depart="609.0">
        <route edges="e_t t_w"/>
    </vehicle>
    <vehicle id="56" depart="613.0">
        <route edges="n_t t_w"/>
    </vehicle>
    <vehicle id="57" depart="628.0">
        <route edges="s_t t_n"/>
    </vehicle>
    <vehicle id="58" depart="629.0">
        <route edges="n_t t_s"/>
    </vehicle>
    <vehicle id="59" depart="633.0">
        <route edges="s_t t_n"/>
    </vehicle>
    <vehicle id="60" depart="634.0">
        <route edges="e_t t_s s_t t_e"/>
    </vehicle>
    <vehicle id="61" depart="635.0">
        <route edges="w_t t_s"/>
    </vehicle>
    <vehicle id="62" depart="650.0">
        <route edges="e_t t_w"/>
    </vehicle>
    <vehicle id="63" depart="651.0">
        <route edges="s_t t_n"/>
    </vehicle>
    <vehicle id="64" depart="651.0">
        <route edges="w_t t_e"/>
    </vehicle>
    <vehicle id="65" depart="655.0">
        <route edges="e_t t_n"/>
    </vehicle>
    <vehicle id="66" depart="658.0">
        <route edges="s_t t_e e_t t_s"/>
    </vehicle>
    <vehicle id="67" depart="659.0">
        <route edges="n_t t_w"/>
    </vehicle>
    <vehicle id="68" depart="659.0">
        <route edges="n_t t_w"/>
    </vehicle>
    <vehicle id="69" depart="681.0">
        <route edges="e_t t_w"/>
    </vehicle>
    <vehicle id="70" depart="693.0">
        <route edges="e_t t_s"/>
    </vehicle>
    <vehicle id="71" depart="697.0">
        <route edges="w_t t_s"/>
    </vehicle>
    <vehicle id="72" depart="697.0">
        <route edges="s_t t_e e_t t_s"/>
    </vehicle>
    <vehicle id="73" depart="698.0">
        <route edges="w_t t_n"/>
    </vehicle>
    <vehicle id="74" depart="703.0">
        <route edges="e_t t_s"/>
    </vehicle>
    <vehicle id="75" depart="708.0">
        <route edges="s_t t_e"/>
    </vehicle>
    <vehicle id="76" depart="715.0">
        <route edges="s_t t_n"/>
    </vehicle>
    <vehicle id="77" depart="728.0">
        <route edges="e_t t_s"/>
    </vehicle>
    <vehicle id="78" depart="728.0">
        <route edges="w_t t_n"/>
    </vehicle>
    <vehicle id="79" depart="729.0">
        <route edges="w_t t_n n_t t_w"/>
    </vehicle>
    <vehicle id="80" depart="729.0">
        <route edges="s_t t_n"/>
    </vehicle>
    <vehicle id="81" depart="731.0">
        <route edges="n_t t_e"/>
    </vehicle>
    <vehicle id="82" depart="731.0">
        <route edges="n_t t_w"/>
    </vehicle>
    <vehicle id="83" depart="741.0">
        <route edges="e_t t_w"/>
    </vehicle>
    <vehicle id="84" depart="742.0">
        <route edges="s_t t_w"/>
    </vehicle>
    <vehicle id="85" depart="747.0">
        <route edges="e_t t_s"/>
    </vehicle>
    <vehicle id="86" depart="748.0">
        <route edges="e_t t_s"/>
    </vehicle>
    <vehicle id="87" depart="748.0">
        <route edges="w_t t_s"/>
    </vehicle>
    <vehicle id="88" depart="752.0">
        <route edges="s_t t_w"/>
    </vehicle>
    <vehicle id="89" depart="765.0">
        <route edges="e_t t_s s_t t_e"/>
    </vehicle>
    <vehicle id="90" depart="765.0">
        <route edges="w_t t_e"/>
    </vehicle>
    <vehicle id="91" depart="768.0">
        <route edges="n_t t_e e_t t_n"/>
    </vehicle>
    <vehicle id="92" depart="769.0">
        <route edges="w_t t_n"/>
    </vehicle>
    <vehicle id="93" depart="769.0">
        <route edges="s_t t_e e_t t_s"/>
    </vehicle>
    <vehicle id="94" depart="771.0">
        <route edges="n_t t_e e_t t_n"/>
    </vehicle>
    <vehicle id="95" depart="771.0">
        <route edges="n_t t_s"/>
    </vehicle>
    <vehicle id="96" depart="772.0">
        <route edges="n_t t_e e_t t_n"/>
    </vehicle>
    <vehicle id="97" depart="804.0">
        <route edges="w_t t_n n_t t_w"/>
    </vehicle>
    <vehicle id="98" depart="805.0">
        <route edges="e_t t_w"/>
    </vehicle>
    <vehicle id="99" depart="812.0">
        <route edges="e_t t_n"/>
    </vehicle>
    <vehicle id="100" depart="812.0">
        <route edges="w_t t_e"/>
    </vehicle>
    <vehicle id="101" depart="813.0">
        <route edges="s_t t_w"/>
    </vehicle>
    <vehicle id="102" depart="813.0">
        <route edges="s_t t_n"/>
    </vehicle>
    <vehicle id="103" depart="814.0">
        <route edges="e_t t_n"/>
    </vehicle>
    <vehicle id="104" depart="816.0">
        <route edges="n_t t_w"/>
    </vehicle>
    <vehicle id="105" depart="823.0">
        <route edges="n_t t_w"/>
    </vehicle>
    <vehicle id="106" depart="829.0">
        <route edges="n_t t_s"/>
    </vehicle>
    <vehicle id="107" depart="829.0">
        <route edges="w_t t_e"/>
    </vehicle>
    <vehicle id="108" depart="829.0">
        <route edges="w_t t_n"/>
    </vehicle>
    <vehicle id="109" depart="831.0">
        <route edges="n_t t_w"/>
    </vehicle>
    <vehicle id="110" depart="835.0">
        <route edges="s_t t_e e_t t_s"/>
    </vehicle>
    <vehicle id="111" depart="844.0">
        <route edges="e_t t_s s_t t_e"/>
    </vehicle>
    <vehicle id="112" depart="847.0">
        <route edges="w_t t_s"/>
    </vehicle>
    <vehicle id="113" depart="853.0">
        <route edges="s_t t_e e_t t_s"/>
    </vehicle>
    <vehicle id="114" depart="853.0">
        <route edges="s_t t_n"/>
    </vehicle>
    <vehicle id="115" depart="876.0">
        <route edges="w_t t_n"/>
    </vehicle>
    <vehicle id="116" depart="881.0">
        <route edges="e_t t_w"/>
    </vehicle>
    <vehicle id="117" depart="882.0">
        <route edges="w_t t_e"/>
    </vehicle>
    <vehicle id="118" depart="884.0">
        <route edges="w_t t_s"/>
    </vehicle>
    <vehicle id="119" depart="884.0">
        <route edges="n_t t_s"/>
    </vehicle>
    <vehicle id="120" depart="901.0">
        <route edges="w_t t_e"/>
    </vehicle>
    <vehicle id="121" depart="901.0">
        <route edges="s_t t_e"/>
    </vehicle>
    <vehicle id="122" depart="902.0">
        <route edges="e_t t_w"/>
    </vehicle>
    <vehicle id="123" depart="927.0">
        <route edges="w_t t_s"/>
    </vehicle>
    <vehicle id="124" depart="928.0">
        <route edges="w_t t_n"/>
    </vehicle>
    <vehicle id="125" depart="930.0">
        <route edges="n_t t_s"/>
    </vehicle>
    <vehicle id="126" depart="938.0">
        <route edges="w_t t_s"/>
    </vehicle>
    <vehicle id="127" depart="938.0">
        <route edges="n_t t_s"/>
    </vehicle>
    <vehicle id="128" depart="939.0">
        <route edges="n_t t_w"/>
    </vehicle>
    <vehicle id="129" depart="942.0">
        <route edges="w_t t_n n_t t_w"/>
    </vehicle>
    <vehicle id="130" depart="946.0">
        <route edges="n_t t_e e_t t_n"/>
    </vehicle>
    <vehicle id="131" depart="953.0">
        <route edges="w_t t_n"/>
    </vehicle>
    <vehicle id="132" depart="959.0">
        <route edges="s_t t_e"/>
    </vehicle>
    <vehicle id="133" depart="961.0">
        <route edges="e_t t_s s_t t_e"/>
    </vehicle>
    <vehicle id="134" depart="963.0">
        <route edges="s_t t_e"/>
    </vehicle>
    <vehicle id="135" depart="965.0">
        <route edges="s_t t_e"/>
    </vehicle>
    <vehicle id="136" depart="966.0">
        <route edges="s_t t_e e_t t_s"/>
    </vehicle>
    <vehicle id="137" depart="973.0">
        <route edges="n_t t_e"/>
    </vehicle>
    <vehicle id="138" depart="976.0">
        <route edges="n_t t_e e_t t_n"/>
    </vehicle>
    <vehicle id="139" depart="993.0">
        <route edges="e_t t_s s_t t_e"/>
    </vehicle>
    <vehicle id="140" depart="1000.0">
        <route edges="w_t t_n n_t t_w"/>
    </vehicle>
    <vehicle id="141" depart="1003.0">
        <route edges="e_t t_s"/>
    </vehicle>
    <vehicle id="142" depart="1006.0">
        <route edges="s_t t_w"/>
    </vehicle>
    <vehicle id="143" depart="1009.0">
        <route edges="s_t t_e e_t t_s"/>
    </vehicle>
    <vehicle id="144" depart="1023.0">
        <route edges="w_t t_n n_t t_w"/>
    </vehicle>
    <vehicle id="145" depart="1029.0">
        <route edges="s_t t_e e_t t_s"/>
    </vehicle>
    <vehicle id="146" depart="1029.0">
        <route edges="w_t t_e"/>
    </vehicle>
    <vehicle id="147" depart="1030.0">
        <route edges="w_t t_e"/>
    </vehicle>
    <vehicle id="148" depart="1032.0">
        <route edges="n_t t_e e_t t_n"/>
    </vehicle>
    <vehicle id="149" depart="1036.0">
        <route edges="s_t t_e e_t t_s"/>
    </vehicle>
    <vehicle id="150" depart="1041.0">
        <route edges="s_t t_n"/>
    </vehicle>
    <vehicle id="151" depart="1053.0">
        <route edges="n_t t_s"/>
    </vehicle>
    <vehicle id="152" depart="1054.0">
        <route edges="w_t t_n"/>
    </vehicle>
    <vehicle id="153" depart="1059.0">
        <route edges="e_t t_w"/>
    </vehicle>
    <vehicle id="154" depart="1063.0">
        <route edges="w_t t_n n_t t_w"/>
    </vehicle>
    <vehicle id="155" depart="1067.0">
        <route edges="s_t t_n"/>
    </vehicle>
    <vehicle id="156" depart="1070.0">
        <route edges="e_t t_w"/>
    </vehicle>
    <vehicle id="157" depart="1076.0">
        <route edges="n_t t_e"/>
    </vehicle>
    <vehicle id="158" depart="1078.0">
        <route edges="s_t t_e"/>
    </vehicle>
    <vehicle id="159" depart="1081.0">
        <route edges="n_t t_s"/>
    </vehicle>
    <vehicle id="160" depart="1090.0">
        <route edges="w_t t_n"/>
    </vehicle>
    <vehicle id="161" depart="1090.0">
        <route edges="e_t t_n"/>
    </vehicle>
    <vehicle id="162" depart="1091.0">
        <route edges="w_t t_e"/>
    </vehicle>
    <vehicle id="163" depart="1099.0">
        <route edges="e_t t_n"/>
    </vehicle>
    <vehicle id="164" depart="1102.0">
        <route edges="w_t t_n n_t t_w"/>
    </vehicle>
    <vehicle id="165" depart="1103.0">
        <route edges="w_t t_e"/>
    </vehicle>
    <vehicle id="166" depart="1111.0">
        <route edges="s_t t_e"/>
    </vehicle>
    <vehicle id="167" depart="1129.0">
        <route edges="s_t t_w"/>
    </vehicle>
    <vehicle id="168" depart="1141.0">
        <route edges="n_t t_s"/>
    </vehicle>
    <vehicle id="169" depart="1141.0">
        <route edges="s_t t_e e_t t_s"/>
    </vehicle>
    <vehicle id="170" depart="1151.0">
        <route edges="n_t t_e"/>
    </vehicle>
    <vehicle id="171" depart="1153.0">
        <route edges="s_t t_w"/>
    </vehicle>
    <vehicle id="172" depart="1155.0">
        <route edges="w_t t_n n_t t_w"/>
    </vehicle>
    <vehicle id="173" depart="1155.0">
        <route edges="w_t t_s"/>
    </vehicle>
    <vehicle id="174" depart="1156.0">
        <route edges="n_t t_e"/>
    </vehicle>
    <vehicle id="175" depart="1158.0">
        <route edges="w_t t_e"/>
    </vehicle>
    <vehicle id="176" depart="1158.0">
        <route edges="w_t t_n n_t t_w"/>
    </vehicle>
    <vehicle id="177" depart="1160.0">
        <route edges="n_t t_w"/>
    </vehicle>
    <vehicle id="178" depart="1162.0">
        <route edges="w_t t_n n_t t_w"/>
    </vehicle>
    <vehicle id="179" depart="1163.0">
        <route edges="e_t t_n"/>
    </vehicle>
    <vehicle id="180" depart="1171.0">
        <route edges="e_t t_w"/>
    </vehicle>
    <vehicle id="181" depart="1181.0">
        <route edges="e_t t_n"/>
    </vehicle>
    <vehicle id="182" depart="1192.0">
        <route edges="w_t t_n"/>
    </vehicle>
    <vehicle id="183" depart="1195.0">
        <route edges="s_t t_e e_t t_s"/>
    </vehicle>
    <vehicle id="184" depart="1199.0">
        <route edges="n_t t_w"/>
    </vehicle>
    <vehicle id="185" depart="1205.0">
        <route edges="s_t t_e e_t t_s"/>
    </vehicle>
    <vehicle id="186" depart="1207.0">
        <route edges="s_t t_e e_t t_s"/>
    </vehicle>
    <vehicle id="187" depart="1215.0">
        <route edges="e_t t_w"/>
    </vehicle>
    <vehicle id="188" depart="1219.0">
        <route edges="w_t t_e"/>
    </vehicle>
    <vehicle id="189" depart="1239.0">
        <route edges="n_t t_e"/>
    </vehicle>
    <vehicle id="190" depart="1244.0">
        <route edges="e_t t_s"/>
    </vehicle>
    <vehicle id="191" depart="1247.0">
        <route edges="n_t t_e"/>
    </vehicle>
    <vehicle id="192" depart="1262.0">
        <route edges="n_t t_s"/>
    </vehicle>
    <vehicle id="193" depart="1263.0">
        <route edges="e_t t_s"/>
    </vehicle>
    <vehicle id="194" depart="1263.0">
        <route edges="s_t t_w"/>
    </vehicle>
    <vehicle id="195" depart="1268.0">
        <route edges="w_t t_n n_t t_w"/>
    </vehicle>
    <vehicle id="196" depart="1277.0">
        <route edges="n_t t_e"/>
    </vehicle>
    <vehicle id="197" depart="1278.0">
        <route edges="n_t t_e"/>
    </vehicle>
    <vehicle id="198" depart="1289.0">
        <route edges="w_t t_n"/>
    </vehicle>
    <vehicle id="199" depart="1290.0">
        <route edges="s_t t_e e_t t_s"/>
    </vehicle>
    <vehicle id="200" depart="1293.0">
        <route edges="n_t t_w"/>
    </vehicle>
    <vehicle id="201" depart="1304.0">
        <route edges="s_t t_e e_t t_s"/>
    </vehicle>
    <vehicle id="202" depart="1304.0">
        <route edges="e_t t_s s_t t_e"/>
    </vehicle>
    <vehicle id="203" depart="1305.0">
        <route edges="s_t t_n"/>
    </vehicle>
    <vehicle id="204" depart="1310.0">
        <route edges="s_t t_w"/>
    </vehicle>
    <vehicle id="205" depart="1319.0">
        <route edges="s_t t_w"/>
    </vehicle>
    <vehicle id="206" depart="1319.0">
        <route edges="n_t t_e"/>
    </vehicle>
    <vehicle id="207" depart="1320.0">
        <route edges="n_t t_w"/>
    </vehicle>
    <vehicle id="208" depart="1322.0">
        <route edges="e_t t_s s_t t_e"/>
    </vehicle>
    <vehicle id="209" depart="1325.0">
        <route edges="e_t t_w"/>
    </vehicle>
    <vehicle id="210" depart="1327.0">
        <route edges="e_t t_s s_t t_e"/>
    </vehicle>
    <vehicle id="211" depart="1328.0">
        <route edges="n_t t_e"/>
    </vehicle>
    <vehicle id="212" depart="1329.0">
        <route edges="s_t t_e e_t t_s"/>
    </vehicle>
    <vehicle id="213" depart="1329.0">
        <route edges="n_t t_s"/>
    </vehicle>
    <vehicle id="214" depart="1330.0">
        <route edges="e_t t_w"/>
    </vehicle>
    <vehicle id="215" depart="1332.0">
        <route edges="s_t t_w"/>
    </vehicle>
    <vehicle id="216" depart="1336.0">
        <route edges="e_t t_w"/>
    </vehicle>
    <vehicle id="217" depart="1341.0">
        <route edges="w_t t_n"/>
    </vehicle>
    <vehicle id="218" depart="1344.0">
        <route edges="n_t t_s"/>
    </vehicle>
    <vehicle id="219" depart="1345.0">
        <route edges="s_t t_n"/>
    </vehicle>
    <vehicle id="220" depart="1346.0">
        <route edges="s_t t_w"/>
    </vehicle>
    <vehicle id="221" depart="1350.0">
        <route edges="s_t t_n"/>
    </vehicle>
    <vehicle id="222" depart="1352.0">
        <route edges="w_t t_n n_t t_w"/>
    </vehicle>
    <vehicle id="223" depart="1361.0">
        <route edges="e_t t_n"/>
    </vehicle>
    <vehicle id="224" depart="1364.0">
        <route edges="n_t t_e e_t t_n"/>
    </vehicle>
    <vehicle id="225" depart="1375.0">
        <route edges="n_t t_w"/>
    </vehicle>
    <vehicle id="226" depart="1385.0">
        <route edges="s_t t_e"/>
    </vehicle>
    <vehicle id="227" depart="1387.0">
        <route edges="e_t t_s s_t t_e"/>
    </vehicle>
    <vehicle id="228" depart="1390.0">
        <route edges="n_t t_s"/>
    </vehicle>
    <vehicle id="229" depart="1392.0">
        <route edges="n_t t_e e_t t_n"/>
    </vehicle>
    <vehicle id="230" depart="1393.0">
        <route edges="s_t t_n"/>
    </vehicle>
    <vehicle id="231" depart="1394.0">
        <route edges="w_t t_e"/>
    </vehicle>
    <vehicle id="232" depart="1396.0">
        <route edges="n_t t_s"/>
    </vehicle>
    <vehicle id="233" depart="1400.0">
        <route edges="w_t t_n"/>
    </vehicle>
    <vehicle id="234" depart="1401.0">
        <route edges="s_t t_n"/>
    </vehicle>
    <vehicle id="235" depart="1410.0">
        <route edges="e_t t_w"/>
    </vehicle>
    <vehicle id="236" depart="1413.0">
        <route edges="e_t t_w"/>
    </vehicle>
    <vehicle id="237" depart="1416.0">
        <route edges="e_t t_n"/>
    </vehicle>
    <vehicle id="238" depart="1418.0">
        <route edges="s_t t_w"/>
    </vehicle>
    <vehicle id="239" depart="1421.0">
        <route edges="w_t t_n"/>
    </vehicle>
    <vehicle id="240" depart="1425.0">
        <route edges="e_t t_w"/>
    </vehicle>
    <vehicle id="241" depart="1430.0">
        <route edges="s_t t_w"/>
    </vehicle>
    <vehicle id="242" depart="1432.0">
        <route edges="e_t t_s"/>
    </vehicle>
    <vehicle id="243" depart="1433.0">
        <route edges="s_t t_w"/>
    </vehicle>
    <vehicle id="244" depart="1435.0">
        <route edges="w_t t_n n_t t_w"/>
    </vehicle>
    <vehicle id="245" depart="1436.0">
        <route edges="w_t t_e"/>
    </vehicle>
    <vehicle id="246" depart="1455.0">
        <route edges="w_t t_s"/>
    </vehicle>
    <vehicle id="247" depart="1456.0">
        <route edges="w_t t_e"/>
    </vehicle>
    <vehicle id="248" depart="1463.0">
        <route edges="s_t t_w"/>
    </vehicle>
    <vehicle id="249" depart="1467.0">
        <route edges="w_t t_s"/>
    </vehicle>
    <vehicle id="250" depart="1472.0">
        <route edges="w_t t_e"/>
    </vehicle>
    <vehicle id="251" depart="1488.0">
        <route edges="e_t t_n"/>
    </vehicle>
    <vehicle id="252" depart="1489.0">
        <route edges="w_t t_s"/>
    </vehicle>
    <vehicle id="253" depart="1491.0">
        <route edges="n_t t_w"/>
    </vehicle>
    <vehicle id="254" depart="1492.0">
        <route edges="s_t t_e"/>
    </vehicle>
    <vehicle id="255" depart="1504.0">
        <route edges="w_t t_s"/>
    </vehicle>
    <vehicle id="256" depart="1513.0">
        <route edges="w_t t_n n_t t_w"/>
    </vehicle>
    <vehicle id="257" depart="1515.0">
        <route edges="s_t t_w"/>
    </vehicle>
    <vehicle id="258" depart="1517.0">
        <route edges="e_t t_s s_t t_e"/>
    </vehicle>
    <vehicle id="259" depart="1517.0">
        <route edges="n_t t_w"/>
    </vehicle>
    <vehicle id="260" depart="1518.0">
        <route edges="e_t t_w"/>
    </vehicle>
    <vehicle id="261" depart="1521.0">
        <route edges="s_t t_e"/>
    </vehicle>
    <vehicle id="262" depart="1525.0">
        <route edges="e_t t_s"/>
    </vehicle>
    <vehicle id="263" depart="1527.0">
        <route edges="n_t t_w"/>
    </vehicle>
    <vehicle id="264" depart="1534.0">
        <route edges="e_t t_s"/>
    </vehicle>
    <vehicle id="265" depart="1538.0">
        <route edges="w_t t_e"/>
    </vehicle>
    <vehicle id="266" depart="1547.0">
        <route edges="n_t t_s"/>
    </vehicle>
    <vehicle id="267" depart="1549.0">
        <route edges="e_t t_s"/>
    </vehicle>
    <vehicle id="268" depart="1551.0">
        <route edges="w_t t_n"/>
    </vehicle>
    <vehicle id="269" depart="1554.0">
        <route edges="e_t t_w"/>
    </vehicle>
    <vehicle id="270" depart="1560.0">
        <route edges="e_t t_w"/>
    </vehicle>
    <vehicle id="271" depart="1568.0">
        <route edges="n_t t_w"/>
    </vehicle>
    <vehicle id="272" depart="1569.0">
        <route edges="n_t t_w"/>
    </vehicle>
    <vehicle id="273" depart="1570.0">
        <route edges="s_t t_e e_t t_s"/>
    </vehicle>
    <vehicle id="274" depart="1576.0">
        <route edges="e_t t_s"/>
    </vehicle>
    <vehicle id="275" depart="1582.0">
        <route edges="e_t t_s"/>
    </vehicle>
    <vehicle id="276" depart="1590.0">
        <route edges="n_t t_e"/>
    </vehicle>
    <vehicle id="277" depart="1593.0">
        <route edges="e_t t_n"/>
    </vehicle>
    <vehicle id="278" depart="1596.0">
        <route edges="e_t t_n"/>
    </vehicle>
    <vehicle id="279" depart="1598.0">
        <route edges="s_t t_w"/>
    </vehicle>
    <vehicle id="280" depart="1598.0">
        <route edges="w_t t_n"/>
    </vehicle>
    <vehicle id="281" depart="1603.0">
        <route edges="w_t t_n"/>
    </vehicle>
    <vehicle id="282" depart="1604.0">
        <route edges="n_t t_s"/>
    </vehicle>
    <vehicle id="283" depart="1607.0">
        <route edges="s_t t_n"/>
    </vehicle>
    <vehicle id="284" depart="1612.0">
        <route edges="s_t t_e"/>
    </vehicle>
    <vehicle id="285" depart="1613.0">
        <route edges="e_t t_n"/>
    </vehicle>
    <vehicle id="286" depart="1616.0">
        <route edges="n_t t_e e_t t_n"/>
    </vehicle>
    <vehicle id="287" depart="1617.0">
        <route edges="s_t t_e"/>
    </vehicle>
    <vehicle id="288" depart="1619.0">
        <route edges="n_t t_e e_t t_n"/>
    </vehicle>
    <vehicle id="289" depart="1620.0">
        <route edges="s_t t_e"/>
    </vehicle>
    <vehicle id="290" depart="1628.0">
        <route edges="s_t t_n"/>
    </vehicle>
    <vehicle id="291" depart="1629.0">
        <route edges="w_t t_e"/>
    </vehicle>
    <vehicle id="292" depart="1629.0">
        <route edges="n_t t_w"/>
    </vehicle>
    <vehicle id="293" depart="1631.0">
        <route edges="w_t t_n n_t t_w"/>
    </vehicle>
    <vehicle id="294" depart="1639.0">
        <route edges="w_t t_n"/>
    </vehicle>
    <vehicle id="295" depart="1660.0">
        <route edges="e_t t_n"/>
    </vehicle>
    <vehicle id="296" depart="1660.0">
        <route edges="s_t t_e e_t t_s"/>
    </vehicle>
    <vehicle id="297" depart="1665.0">
        <route edges="n_t t_e"/>
    </vehicle>
    <vehicle id="298" depart="1668.0">
        <route edges="w_t t_n"/>
    </vehicle>
    <vehicle id="299" depart="1669.0">
        <route edges="e_t t_w"/>
    </vehicle>
    <vehicle id="300" depart="1671.0">
        <route edges="w_t t_s"/>
    </vehicle>
    <vehicle id="301" depart="1676.0">
        <route edges="w_t t_s"/>
    </vehicle>
    <vehicle id="302" depart="1684.0">
        <route edges="s_t t_n"/>
    </vehicle>
    <vehicle id="303" depart="1687.0">
        <route edges="e_t t_w"/>
    </vehicle>
    <vehicle id="304" depart="1690.0">
        <route edges="e_t t_w"/>
    </vehicle>
    <vehicle id="305" depart="1694.0">
        <route edges="n_t t_s"/>
    </vehicle>
    <vehicle id="306" depart="1707.0">
        <route edges="w_t t_n n_t t_w"/>
    </vehicle>
    <vehicle id="307" depart="1711.0">
        <route edges="e_t t_w"/>
    </vehicle>
    <vehicle id="308" depart="1711.0">
        <route edges="e_t t_n"/>
    </vehicle>
    <vehicle id="309" depart="1713.0">
        <route edges="w_t t_n n_t t_w"/>
    </vehicle>
    <vehicle id="310" depart="1730.0">
        <route edges="e_t t_w"/>
    </vehicle>
    <vehicle id="311" depart="1731.0">
        <route edges="n_t t_s"/>
    </vehicle>
    <vehicle id="312" depart="1733.0">
        <route edges="w_t t_e"/>
    </vehicle>
    <vehicle id="313" depart="1742.0">
        <route edges="e_t t_s s_t t_e"/>
    </vehicle>
    <vehicle id="314" depart="1752.0">
        <route edges="e_t t_w"/>
    </vehicle>
    <vehicle id="315" depart="1756.0">
        <route edges="e_t t_n"/>
    </vehicle>
    <vehicle id="316" depart="1762.0">
        <route edges="w_t t_e"/>
    </vehicle>
    <vehicle id="317" depart="1770.0">
        <route edges="n_t t_w"/>
    </vehicle>
    <vehicle id="318" depart="1776.0">
        <route edges="w_t t_n n_t t_w"/>
    </vehicle>
    <vehicle id="319" depart="1785.0">
        <route edges="e_t t_s s_t t_e"/>
    </vehicle>
    <vehicle id="320" depart="1787.0">
        <route edges="s_t t_n"/>
    </vehicle>
    <vehicle id="321" depart="1787.0">
        <route edges="n_t t_s"/>
    </vehicle>
    <vehicle id="322" depart="1788.0">
        <route edges="w_t t_n"/>
    </vehicle>
    <vehicle id="323" depart="1791.0">
        <route edges="w_t t_n"/>
    </vehicle>
    <vehicle id="324" depart="1804.0">
        <route edges="w_t t_e"/>
    </vehicle>
    <vehicle id="325" depart="1813.0">
        <route edges="e_t t_s"/>