<?xml version="1.0" encoding="UTF-8"?>

<!-- generated on 2023-06-30 22:44:09.944619 by randomTrips.py UNKNOWN
<configuration>
    <net-file value="nets/2way-single-intersection/single-intersection.net.xml"/>
    <route-file value="training/routes/2x2_tr_ep11.rou.xml"/>
    <seed value="11"/>
    <validate value="True"/>
    <end value="500.0"/>
</configuration>
-->

<!-- generated on 2023-06-30 22:44:09 by Eclipse SUMO duarouter Version v1_17_0+1256-16eabe86c67
<configuration xmlns:xsi="http://www.w3.org/2001/XMLSchema-instance" xsi:noNamespaceSchemaLocation="http://sumo.dlr.de/xsd/duarouterConfiguration.xsd">

    <input>
        <net-file value="nets/2way-single-intersection/single-intersection.net.xml"/>
        <route-files value="trips.trips.xml"/>
    </input>

    <output>
        <output-file value="training/routes/2x2_tr_ep11.rou.xml"/>
        <alternatives-output value="NUL"/>
    </output>

    <time>
        <begin value="0"/>
        <end value="500.0"/>
    </time>

    <report>
        <no-warnings value="true"/>
        <ignore-errors value="true"/>
        <no-step-log value="true"/>
    </report>

</configuration>
-->

<routes xmlns:xsi="http://www.w3.org/2001/XMLSchema-instance" xsi:noNamespaceSchemaLocation="http://sumo.dlr.de/xsd/routes_file.xsd">
    <vehicle id="0" depart="69.0">
        <route edges="n_t t_s"/>
    </vehicle>
    <vehicle id="1" depart="130.0">
        <route edges="w_t t_n"/>
    </vehicle>
    <vehicle id="2" depart="146.0">
        <route edges="s_t t_e e_t t_s"/>
    </vehicle>
    <vehicle id="3" depart="156.0">
        <route edges="e_t t_s"/>
    </vehicle>
    <vehicle id="4" depart="158.0">
        <route edges="s_t t_w"/>
    </vehicle>
    <vehicle id="5" depart="198.0">
        <route edges="e_t t_n"/>
    </vehicle>
    <vehicle id="6" depart="200.0">
        <route edges="e_t t_w"/>
    </vehicle>
    <vehicle id="7" depart="202.0">
        <route edges="s_t t_e"/>
    </vehicle>
    <vehicle id="8" depart="245.0">
        <route edges="w_t t_n n_t t_w"/>
    </vehicle>
    <vehicle id="9" depart="251.0">
        <route edges="s_t t_e e_t t_s"/>
    </vehicle>
    <vehicle id="10" depart="263.0">
        <route edges="e_t t_s s_t t_e"/>
    </vehicle>
    <vehicle id="11" depart="286.0">
        <route edges="s_t t_e"/>
    </vehicle>
    <vehicle id="12" depart="292.0">
        <route edges="e_t t_s s_t t_e"/>
    </vehicle>
    <vehicle id="13" depart="325.0">
        <route edges="e_t t_n"/>
    </vehicle>
    <vehicle id="14" depart="326.0">
        <route edges="n_t t_w"/>
    </vehicle>
    <vehicle id="15" depart="344.0">
        <route edges="s_t t_e e_t t_s"/>
    </vehicle>
    <vehicle id="16" depart="369.0">
        <route edges="n_t t_s"/>
    </vehicle>
    <vehicle id="17" depart="372.0">
        <route edges="n_t t_e e_t t_n"/>
    </vehicle>
    <vehicle id="18" depart="387.0">
        <route edges="w_t t_n n_t t_w"/>
    </vehicle>
    <vehicle id="19" depart="389.0">
        <route edges="w_t t_s"/>
    </vehicle>
    <vehicle id="20" depart="393.0">
        <route edges="n_t t_e"/>
    </vehicle>
    <vehicle id="21" depart="397.0">
        <route edges="n_t t_e"/>
    </vehicle>
    <vehicle id="22" depart="422.0">
        <route edges="w_t t_n"/>
    </vehicle>
    <vehicle id="23" depart="429.0">
        <route edges="w_t t_n"/>
    </vehicle>
    <vehicle id="24" depart="439.0">
        <route edges="w_t t_n n_t t_w"/>
    </vehicle>
    <vehicle id="25" depart="463.0">
        <route edges="e_t t_s s_t t_e"/>
    </vehicle>
    <vehicle id="26" depart="481.0">
        <route edges="w_t t_n"/>
    </vehicle>
    <vehicle id="27" depart="482.0">
        <route edges="w_t t_n"/>
    </vehicle>
    <vehicle id="28" depart="501.0">
        <route edges="e_t t_s"/>
    </vehicle>
    <vehicle id="29" depart="505.0">
        <route edges="w_t t_n"/>
    </vehicle>
    <vehicle id="30" depart="505.0">
        <route edges="e_t t_n"/>
    </vehicle>
    <vehicle id="31" depart="510.0">
        <route edges="w_t t_n n_t t_w"/>
    </vehicle>
    <vehicle id="32" depart="512.0">
        <route edges="e_t t_s s_t t_e"/>
    </vehicle>
    <vehicle id="33" depart="534.0">
        <route edges="e_t t_s s_t t_e"/>
    </vehicle>
    <vehicle id="34" depart="545.0">
        <route edges="w_t t_e"/>
    </vehicle>
    <vehicle id="35" depart="550.0">
        <route edges="s_t t_n"/>
    </vehicle>
    <vehicle id="36" depart="554.0">
        <route edges="e_t t_s"/>
    </vehicle>
    <vehicle id="37" depart="555.0">
        <route edges="e_t t_s"/>
    </vehicle>
    <vehicle id="38" depart="567.0">
        <route edges="e_t t_n"/>
    </vehicle>
    <vehicle id="39" depart="574.0">
        <route edges="e_t t_n"/>
    </vehicle>
    <vehicle id="40" depart="575.0">
        <route edges="w_t t_n n_t t_w"/>
    </vehicle>
    <vehicle id="41" depart="577.0">
        <route edges="n_t t_w"/>
    </vehicle>
    <vehicle id="42" depart="581.0">
        <route edges="e_t t_n"/>
    </vehicle>
    <vehicle id="43" depart="586.0">
        <route edges="w_t t_s"/>
    </vehicle>
    <vehicle id="44" depart="596.0">
        <route edges="e_t t_w"/>
    </vehicle>
    <vehicle id="45" depart="619.0">
        <route edges="e_t t_n"/>
    </vehicle>
    <vehicle id="46" depart="623.0">
        <route edges="w_t t_n"/>
    </vehicle>
    <vehicle id="47" depart="631.0">
        <route edges="n_t t_e"/>
    </vehicle>
    <vehicle id="48" depart="631.0">
        <route edges="e_t t_s"/>
    </vehicle>
    <vehicle id="49" depart="635.0">
        <route edges="e_t t_s"/>
    </vehicle>
    <vehicle id="50" depart="635.0">
        <route edges="n_t t_e e_t t_n"/>
    </vehicle>
    <vehicle id="51" depart="636.0">
        <route edges="w_t t_n"/>
    </vehicle>
    <vehicle id="52" depart="683.0">
        <route edges="s_t t_w"/>
    </vehicle>
    <vehicle id="53" depart="686.0">
        <route edges="e_t t_s s_t t_e"/>
    </vehicle>
    <vehicle id="54" depart="688.0">
        <route edges="w_t t_n n_t t_w"/>
    </vehicle>
    <vehicle id="55" depart="694.0">
        <route edges="e_t t_s s_t t_e"/>
    </vehicle>
    <vehicle id="56" depart="694.0">
        <route edges="s_t t_w"/>
    </vehicle>
    <vehicle id="57" depart="721.0">
        <route edges="e_t t_w"/>
    </vehicle>
    <vehicle id="58" depart="721.0">
        <route edges="w_t t_s"/>
    </vehicle>
    <vehicle id="59" depart="728.0">
        <route edges="n_t t_e"/>
    </vehicle>
    <vehicle id="60" depart="729.0">
        <route edges="e_t t_w"/>
    </vehicle>
    <vehicle id="61" depart="732.0">
        <route edges="e_t t_s"/>
    </vehicle>
    <vehicle id="62" depart="746.0">
        <route edges="n_t t_w"/>
    </vehicle>
    <vehicle id="63" depart="748.0">
        <route edges="s_t t_n"/>
    </vehicle>
    <vehicle id="64" depart="750.0">
        <route edges="e_t t_s"/>
    </vehicle>
    <vehicle id="65" depart="752.0">
        <route edges="e_t t_s s_t t_e"/>
    </vehicle>
    <vehicle id="66" depart="764.0">
        <route edges="s_t t_w"/>
    </vehicle>
    <vehicle id="67" depart="770.0">
        <route edges="s_t t_n"/>
    </vehicle>
    <vehicle id="68" depart="773.0">
        <route edges="w_t t_e"/>
    </vehicle>
    <vehicle id="69" depart="773.0">
        <route edges="e_t t_n"/>
    </vehicle>
    <vehicle id="70" depart="774.0">
        <route edges="n_t t_e"/>
    </vehicle>
    <vehicle id="71" depart="780.0">
        <route edges="e_t t_n"/>
    </vehicle>
    <vehicle id="72" depart="782.0">
        <route edges="s_t t_e"/>
    </vehicle>
    <vehicle id="73" depart="782.0">
        <route edges="n_t t_w"/>
    </vehicle>
    <vehicle id="74" depart="795.0">
        <route edges="w_t t_s"/>
    </vehicle>
    <vehicle id="75" depart="797.0">
        <route edges="s_t t_e e_t t_s"/>
    </vehicle>
    <vehicle id="76" depart="809.0">
        <route edges="e_t t_s s_t t_e"/>
    </vehicle>
    <vehicle id="77" depart="815.0">
        <route edges="e_t t_w"/>
    </vehicle>
    <vehicle id="78" depart="823.0">
        <route edges="s_t t_w"/>
    </vehicle>
    <vehicle id="79" depart="826.0">
        <route edges="e_t t_s"/>
    </vehicle>
    <vehicle id="80" depart="826.0">
        <route edges="n_t t_s"/>
    </vehicle>
    <vehicle id="81" depart="830.0">
        <route edges="n_t t_w"/>
    </vehicle>
    <vehicle id="82" depart="834.0">
        <route edges="e_t t_s"/>
    </vehicle>
    <vehicle id="83" depart="836.0">
        <route edges="s_t t_w"/>
    </vehicle>
    <vehicle id="84" depart="841.0">
        <route edges="s_t t_e e_t t_s"/>
    </vehicle>
    <vehicle id="85" depart="850.0">
        <route edges="w_t t_n n_t t_w"/>
    </vehicle>
    <vehicle id="86" depart="852.0">
        <route edges="n_t t_s"/>
    </vehicle>
    <vehicle id="87" depart="866.0">
        <route edges="w_t t_n n_t t_w"/>
    </vehicle>
    <vehicle id="88" depart="870.0">
        <route edges="n_t t_w"/>
    </vehicle>
    <vehicle id="89" depart="873.0">
        <route edges="w_t t_s"/>
    </vehicle>
    <vehicle id="90" depart="880.0">
        <route edges="s_t t_n"/>
    </vehicle>
    <vehicle id="91" depart="883.0">
        <route edges="s_t t_e e_t t_s"/>
    </vehicle>
    <vehicle id="92" depart="886.0">
        <route edges="e_t t_s"/>
    </vehicle>
    <vehicle id="93" depart="907.0">
        <route edges="w_t t_n n_t t_w"/>
    </vehicle>
    <vehicle id="94" depart="907.0">
        <route edges="s_t t_n"/>
    </vehicle>
    <vehicle id="95" depart="908.0">
        <route edges="s_t t_e e_t t_s"/>
    </vehicle>
    <vehicle id="96" depart="913.0">
        <route edges="n_t t_w"/>
    </vehicle>
    <vehicle id="97" depart="916.0">
        <route edges="e_t t_w"/>
    </vehicle>
    <vehicle id="98" depart="918.0">
        <route edges="e_t t_s"/>
    </vehicle>
    <vehicle id="99" depart="918.0">
        <route edges="n_t t_e"/>
    </vehicle>
    <vehicle id="100" depart="931.0">
        <route edges="s_t t_n"/>
    </vehicle>
    <vehicle id="101" depart="936.0">
        <route edges="s_t t_w"/>
    </vehicle>
    <vehicle id="102" depart="937.0">
        <route edges="n_t t_e"/>
    </vehicle>
    <vehicle id="103" depart="939.0">
        <route edges="n_t t_s"/>
    </vehicle>
    <vehicle id="104" depart="942.0">
        <route edges="e_t t_s s_t t_e"/>
    </vehicle>
    <vehicle id="105" depart="946.0">
        <route edges="w_t t_s"/>
    </vehicle>
    <vehicle id="106" depart="947.0">
        <route edges="n_t t_w"/>
    </vehicle>
    <vehicle id="107" depart="947.0">
        <route edges="n_t t_s"/>
    </vehicle>
    <vehicle id="108" depart="950.0">
        <route edges="e_t t_n"/>
    </vehicle>
    <vehicle id="109" depart="951.0">
        <route edges="w_t t_n n_t t_w"/>
    </vehicle>
    <vehicle id="110" depart="952.0">
        <route edges="w_t t_n"/>
    </vehicle>
    <vehicle id="111" depart="957.0">
        <route edges="s_t t_n"/>
    </vehicle>
    <vehicle id="112" depart="958.0">
        <route edges="e_t t_n"/>
    </vehicle>
    <vehicle id="113" depart="974.0">
        <route edges="w_t t_n n_t t_w"/>
    </vehicle>
    <vehicle id="114" depart="982.0">
        <route edges="s_t t_w"/>
    </vehicle>
    <vehicle id="115" depart="982.0">
        <route edges="n_t t_e"/>
    </vehicle>
    <vehicle id="116" depart="996.0">
        <route edges="n_t t_e e_t t_n"/>
    </vehicle>
    <vehicle id="117" depart="997.0">
        <route edges="e_t t_n"/>
    </vehicle>
    <vehicle id="118" depart="1007.0">
        <route edges="s_t t_n"/>
    </vehicle>
    <vehicle id="119" depart="1010.0">
        <route edges="n_t t_w"/>
    </vehicle>
    <vehicle id="120" depart="1011.0">
        <route edges="w_t t_n"/>
    </vehicle>
    <vehicle id="121" depart="1011.0">
        <route edges="e_t t_s s_t t_e"/>
    </vehicle>
    <vehicle id="122" depart="1017.0">
        <route edges="w_t t_e"/>
    </vehicle>
    <vehicle id="123" depart="1025.0">
        <route edges="s_t t_e e_t t_s"/>
    </vehicle>
    <vehicle id="124" depart="1026.0">
        <route edges="n_t t_w"/>
    </vehicle>
    <vehicle id="125" depart="1027.0">
        <route edges="e_t t_s s_t t_e"/>
    </vehicle>
    <vehicle id="126" depart="1030.0">
        <route edges="n_t t_e"/>
    </vehicle>
    <vehicle id="127" depart="1031.0">
        <route edges="w_t t_e"/>
    </vehicle>
    <vehicle id="128" depart="1036.0">
        <route edges="e_t t_s s_t t_e"/>
    </vehicle>
    <vehicle id="129" depart="1037.0">
        <route edges="s_t t_n"/>
    </vehicle>
    <vehicle id="130" depart="1038.0">
        <route edges="s_t t_e e_t t_s"/>
    </vehicle>
    <vehicle id="131" depart="1041.0">
        <route edges="w_t t_n n_t t_w"/>
    </vehicle>
    <vehicle id="132" depart="1043.0">
        <route edges="s_t t_e"/>
    </vehicle>
    <vehicle id="133" depart="1060.0">
        <route edges="n_t t_e"/>
    </vehicle>
    <vehicle id="134" depart="1068.0">
        <route edges="e_t t_n"/>
    </vehicle>
    <vehicle id="135" depart="1072.0">
        <route edges="s_t t_e"/>
    </vehicle>
    <vehicle id="136" depart="1092.0">
        <route edges="n_t t_e e_t t_n"/>
    </vehicle>
    <vehicle id="137" depart="1094.0">
        <route edges="s_t t_e e_t t_s"/>
    </vehicle>
    <vehicle id="138" depart="1101.0">
        <route edges="s_t t_w"/>
    </vehicle>
    <vehicle id="139" depart="1116.0">
        <route edges="n_t t_w"/>
    </vehicle>
    <vehicle id="140" depart="1116.0">
        <route edges="w_t t_e"/>
    </vehicle>
    <vehicle id="141" depart="1135.0">
        <route edges="w_t t_s"/>
    </vehicle>
    <vehicle id="142" depart="1136.0">
        <route edges="e_t t_n"/>
    </vehicle>
    <vehicle id="143" depart="1140.0">
        <route edges="s_t t_w"/>
    </vehicle>
    <vehicle id="144" depart="1142.0">
        <route edges="n_t t_s"/>
    </vehicle>
    <vehicle id="145" depart="1143.0">
        <route edges="w_t t_n n_t t_w"/>
    </vehicle>
    <vehicle id="146" depart="1145.0">
        <route edges="w_t t_n"/>
    </vehicle>
    <vehicle id="147" depart="1146.0">
        <route edges="s_t t_e"/>
    </vehicle>
    <vehicle id="148" depart="1150.0">
        <route edges="s_t t_w"/>
    </vehicle>
    <vehicle id="149" depart="1150.0">
        <route edges="s_t t_e e_t t_s"/>
    </vehicle>
    <vehicle id="150" depart="1157.0">
        <route edges="e_t t_w"/>
    </vehicle>
    <vehicle id="151" depart="1162.0">
        <route edges="w_t t_n n_t t_w"/>
    </vehicle>
    <vehicle id="152" depart="1182.0">
        <route edges="s_t t_w"/>
    </vehicle>
    <vehicle id="153" depart="1184.0">
        <route edges="n_t t_w"/>
    </vehicle>
    <vehicle id="154" depart="1186.0">
        <route edges="w_t t_n"/>
    </vehicle>
    <vehicle id="155" depart="1193.0">
        <route edges="e_t t_n"/>
    </vehicle>
    <vehicle id="156" depart="1194.0">
        <route edges="s_t t_w"/>
    </vehicle>
    <vehicle id="157" depart="1200.0">
        <route edges="n_t t_e"/>
    </vehicle>
    <vehicle id="158" depart="1201.0">
        <route edges="w_t t_e"/>
    </vehicle>
    <vehicle id="159" depart="1203.0">
        <route edges="w_t t_e"/>
    </vehicle>
    <vehicle id="160" depart="1221.0">
        <route edges="n_t t_w"/>
    </vehicle>
    <vehicle id="161" depart="1230.0">
        <route edges="e_t t_s s_t t_e"/>
    </vehicle>
    <vehicle id="162" depart="1231.0">
        <route edges="s_t t_e e_t t_s"/>
    </vehicle>
    <vehicle id="163" depart="1232.0">
        <route edges="w_t t_s"/>
    </vehicle>
    <vehicle id="164" depart="1232.0">
        <route edges="w_t t_n"/>
    </vehicle>
    <vehicle id="165" depart="1235.0">
        <route edges="w_t t_e"/>
    </vehicle>
    <vehicle id="166" depart="1235.0">
        <route edges="e_t t_s"/>
    </vehicle>
    <vehicle id="167" depart="1236.0">
        <route edges="n_t t_s"/>
    </vehicle>
    <vehicle id="168" depart="1244.0">
        <route edges="s_t t_e e_t t_s"/>
    </vehicle>
    <vehicle id="169" depart="1248.0">
        <route edges="w_t t_s"/>
    </vehicle>
    <vehicle id="170" depart="1255.0">
        <route edges="n_t t_e e_t t_n"/>
    </vehicle>
    <vehicle id="171" depart="1257.0">
        <route edges="w_t t_n n_t t_w"/>
    </vehicle>
    <vehicle id="172" depart="1259.0">
        <route edges="e_t t_w"/>
    </vehicle>
    <vehicle id="173" depart="1260.0">
        <route edges="w_t t_s"/>
    </vehicle>
    <vehicle id="174" depart="1273.0">
        <route edges="s_t t_e"/>
    </vehicle>
    <vehicle id="175" depart="1274.0">
        <route edges="s_t t_e e_t t_s"/>
    </vehicle>
    <vehicle id="176" depart="1283.0">
        <route edges="s_t t_e"/>
    </vehicle>
    <vehicle id="177" depart="1290.0">
        <route edges="w_t t_s"/>
    </vehicle>
    <vehicle id="178" depart="1290.0">
        <route edges="n_t t_w"/>
    </vehicle>
    <vehicle id="179" depart="1295.0">
        <route edges="s_t t_n"/>
    </vehicle>
    <vehicle id="180" depart="1303.0">
        <route edges="s_t t_e"/>
    </vehicle>
    <vehicle id="181" depart="1312.0">
        <route edges="s_t t_n"/>
    </vehicle>
    <vehicle id="182" depart="1313.0">
        <route edges="w_t t_n n_t t_w"/>
    </vehicle>
    <vehicle id="183" depart="1323.0">
        <route edges="n_t t_e e_t t_n"/>
    </vehicle>
    <vehicle id="184" depart="1324.0">
        <route edges="e_t t_n"/>
    </vehicle>
    <vehicle id="185" depart="1332.0">
        <route edges="w_t t_n n_t t_w"/>
    </vehicle>
    <vehicle id="186" depart="1335.0">
        <route edges="n_t t_e e_t t_n"/>
    </vehicle>
    <vehicle id="187" depart="1336.0">
        <route edges="e_t t_s"/>
    </vehicle>
    <vehicle id="188" depart="1338.0">
        <route edges="w_t t_e"/>
    </vehicle>
    <vehicle id="189" depart="1341.0">
        <route edges="w_t t_e"/>
    </vehicle>
    <vehicle id="190" depart="1342.0">
        <route edges="e_t t_s s_t t_e"/>
    </vehicle>
    <vehicle id="191" depart="1343.0">
        <route edges="s_t t_n"/>
    </vehicle>
    <vehicle id="192" depart="1348.0">
        <route edges="n_t t_s"/>
    </vehicle>
    <vehicle id="193" depart="1370.0">
        <route edges="e_t t_s"/>
    </vehicle>
    <vehicle id="194" depart="1377.0">
        <route edges="e_t t_s"/>
    </vehicle>
    <vehicle id="195" depart="1377.0">
        <route edges="n_t t_e"/>
    </vehicle>
    <vehicle id="196" depart="1378.0">
        <route edges="s_t t_n"/>
    </vehicle>
    <vehicle id="197" depart="1387.0">
        <route edges="n_t t_e e_t t_n"/>
    </vehicle>
    <vehicle id="198" depart="1395.0">
        <route edges="s_t t_e"/>
    </vehicle>
    <vehicle id="199" depart="1400.0">
        <route edges="e_t t_s"/>
    </vehicle>
    <vehicle id="200" depart="1411.0">
        <route edges="s_t t_e e_t t_s"/>
    </vehicle>
    <vehicle id="201" depart="1412.0">
        <route edges="w_t t_s"/>
    </vehicle>
    <vehicle id="202" depart="1412.0">
        <route edges="w_t t_e"/>
    </vehicle>
    <vehicle id="203" depart="1412.0">
        <route edges="s_t t_w"/>
    </vehicle>
    <vehicle id="204" depart="1414.0">
        <route edges="w_t t_n"/>
    </vehicle>
    <vehicle id="205" depart="1416.0">
        <route edges="n_t t_w"/>
    </vehicle>
    <vehicle id="206" depart="1416.0">
        <route edges="e_t t_w"/>
    </vehicle>
    <vehicle id="207" depart="1417.0">
        <route edges="w_t t_e"/>
    </vehicle>
    <vehicle id="208" depart="1417.0">
        <route edges="e_t t_s"/>
    </vehicle>
    <vehicle id="209" depart="1422.0">
        <route edges="n_t t_e"/>
    </vehicle>
    <vehicle id="210" depart="1428.0">
        <route edges="w_t t_n"/>
    </vehicle>
    <vehicle id="211" depart="1432.0">
        <route edges="w_t t_e"/>
    </vehicle>
    <vehicle id="212" depart="1433.0">
        <route edges="n_t t_s"/>
    </vehicle>
    <vehicle id="213" depart="1443.0">
        <route edges="e_t t_s s_t t_e"/>
    </vehicle>
    <vehicle id="214" depart="1461.0">
        <route edges="s_t t_w"/>
    </vehicle>
    <vehicle id="215" depart="1467.0">
        <route edges="w_t t_e"/>
    </vehicle>
    <vehicle id="216" depart="1470.0">
        <route edges="s_t t_w"/>
    </vehicle>
    <vehicle id="217" depart="1474.0">
        <route edges="s_t t_e e_t t_s"/>
    </vehicle>
    <vehicle id="218" depart="1476.0">
        <route edges="e_t t_s s_t t_e"/>
    </vehicle>
    <vehicle id="219" depart="1483.0">
        <route edges="e_t t_s s_t t_e"/>
    </vehicle>
    <vehicle id="220" depart="1487.0">
        <route edges="s_t t_e e_t t_s"/>
    </vehicle>
    <vehicle id="221" depart="1492.0">
        <route edges="s_t t_e"/>
    </vehicle>
    <vehicle id="222" depart="1493.0">
        <route edges="e_t t_s s_t t_e"/>
    </vehicle>
    <vehicle id="223" depart="1502.0">
        <route edges="w_t t_n n_t t_w"/>
    </vehicle>
    <vehicle id="224" depart="1513.0">
        <route edges="w_t t_e"/>
    </vehicle>
    <vehicle id="225" depart="1524.0">
        <route edges="e_t t_w"/>
    </vehicle>
    <vehicle id="226" depart="1527.0">
        <route edges="n_t t_w"/>
    </vehicle>
    <vehicle id="227" depart="1529.0">
        <route edges="n_t t_e e_t t_n"/>
    </vehicle>
    <vehicle id="228" depart="1533.0">
        <route edges="s_t t_n"/>
    </vehicle>
    <vehicle id="229" depart="1544.0">
        <route edges="s_t t_e"/>
    </vehicle>
    <vehicle id="230" depart="1544.0">
        <route edges="s_t t_w"/>
    </vehicle>
    <vehicle id="231" depart="1554.0">
        <route edges="e_t t_n"/>
    </vehicle>
    <vehicle id="232" depart="1562.0">
        <route edges="s_t t_n"/>
    </vehicle>
    <vehicle id="233" depart="1576.0">
        <route edges="e_t t_s s_t t_e"/>
    </vehicle>
    <vehicle id="234" depart="1577.0">
        <route edges="s_t t_e"/>
    </vehicle>
    <vehicle id="235" depart="1583.0">
        <route edges="w_t t_n n_t t_w"/>
    </vehicle>
    <vehicle id="236" depart="1589.0">
        <route edges="s_t t_w"/>
    </vehicle>
    <vehicle id="237" depart="1593.0">
        <route edges="s_t t_n"/>
    </vehicle>
    <vehicle id="238" depart="1594.0">
        <route edges="s_t t_e e_t t_s"/>
    </vehicle>
    <vehicle id="239" depart="1601.0">
        <route edges="w_t t_n n_t t_w"/>
    </vehicle>
    <vehicle id="240" depart="1602.0">
        <route edges="n_t t_w"/>
    </vehicle>
    <vehicle id="241" depart="1602.0">
        <route edges="s_t t_w"/>
    </vehicle>
    <vehicle id="242" depart="1617.0">
        <route edges="w_t t_n"/>
    </vehicle>
    <vehicle id="243" depart="1619.0">
        <route edges="w_t t_n n_t t_w"/>
    </vehicle>
    <vehicle id="244" depart="1622.0">
        <route edges="s_t t_w"/>
    </vehicle>
    <vehicle id="245" depart="1636.0">
        <route edges="w_t t_n"/>
    </vehicle>
    <vehicle id="246" depart="1643.0">
        <route edges="s_t t_e"/>
    </vehicle>
    <vehicle id="247" depart="1657.0">
        <route edges="n_t t_e e_t t_n"/>
    </vehicle>
    <vehicle id="248" depart="1660.0">
        <route edges="e_t t_n"/>
    </vehicle>
    <vehicle id="249" depart="1661.0">
        <route edges="s_t t_e e_t t_s"/>
    </vehicle>
    <vehicle id="250" depart="1666.0">
        <route edges="e_t t_w"/>
    </vehicle>
    <vehicle id="251" depart="1671.0">
        <route edges="s_t t_n"/>
    </vehicle>
    <vehicle id="252" depart="1671.0">
        <route edges="s_t t_e e_t t_s"/>
    </vehicle>
    <vehicle id="253" depart="1672.0">
        <route edges="s_t t_n"/>
    </vehicle>
    <vehicle id="254" depart="1673.0">
        <route edges="w_t t_s"/>
    </vehicle>
    <vehicle id="255" depart="1674.0">
        <route edges="s_t t_w"/>
    </vehicle>
    <vehicle id="256" depart="1687.0">
        <route edges="w_t t_e"/>
    </vehicle>
    <vehicle id="257" depart="1687.0">
        <route edges="s_t t_e e_t t_s"/>
    </vehicle>
    <vehicle id="258" depart="1690.0">
        <route edges="n_t t_e e_t t_n"/>
    </vehicle>
    <vehicle id="259" depart="1691.0">
        <route edges="e_t t_s s_t t_e"/>
    </vehicle>
    <vehicle id="260" depart="1693.0">
        <route edges="n_t t_e"/>
    </vehicle>
    <vehicle id="261" depart="1696.0">
        <route edges="n_t t_w"/>
    </vehicle>
    <vehicle id="262" depart="1696.0">
        <route edges="s_t t_e e_t t_s"/>
    </vehicle>
    <vehicle id="263" depart="1697.0">
        <route edges="w_t t_s"/>
    </vehicle>
    <vehicle id="264" depart="1698.0">
        <route edges="w_t t_s"/>
    </vehicle>
    <vehicle id="265" depart="1698.0">
        <route edges="w_t t_e"/>
    </vehicle>
    <vehicle id="266" depart="1704.0">
        <route edges="s_t t_w"/>
    </vehicle>
    <vehicle id="267" depart="1723.0">
        <route edges="e_t t_w"/>
    </vehicle>
    <vehicle id="268" depart="1726.0">
        <route edges="e_t t_n"/>
    </vehicle>
    <vehicle id="269" depart="1732.0">
        <route edges="e_t t_n"/>
    </vehicle>
    <vehicle id="270" depart="1733.0">
        <route edges="s_t t_e"/>
    </vehicle>
    <vehicle id="271" depart="1739.0">
        <route edges="w_t t_n"/>
    </vehicle>
    <vehicle id="272" depart="1745.0">
        <route edges="s_t t_e e_t t_s"/>
    </vehicle>
    <vehicle id="273" depart="1748.0">
        <route edges="n_t t_e e_t t_n"/>
    </vehicle>
    <vehicle id="274" depart="1749.0">
        <route edges="s_t t_e e_t t_s"/>
    </vehicle>
    <vehicle id="275" depart="1752.0">
        <route edges="n_t t_s"/>
    </vehicle>
    <vehicle id="276" depart="1754.0">
        <route edges="n_t t_e"/>
    </vehicle>
    <vehicle id="277" depart="1755.0">
        <route edges="e_t t_s s_t t_e"/>
    </vehicle>
    <vehicle id="278" depart="1762.0">
        <route edges="e_t t_w"/>
    </vehicle>
    <vehicle id="279" depart="1763.0">
        <route edges="n_t t_w"/>
    </vehicle>
    <vehicle id="280" depart="1764.0">
        <route edges="s_t t_e"/>
    </vehicle>
    <vehicle id="281" depart="1772.0">
        <route edges="w_t t_n n_t t_w"/>
    </vehicle>
    <vehicle id="282" depart="1773.0">
        <route edges="e_t t_w"/>
    </vehicle>
    <vehicle id="283" depart="1776.0">
        <route edges="n_t t_e e_t t_n"/>
    </vehicle>
    <vehicle id="284" depart="1778.0">
        <route edges="w_t t_e"/>
    </vehicle>
    <vehicle id="285" depart="1778.0">
        <route edges="s_t t_w"/>
    </vehicle>
    <vehicle id="286" depart="1782.0">
        <route edges="s_t t_n"/>
    </vehicle>
    <vehicle id="287" depart="1783.0">
        <route edges="w_t t_n n_t t_w"/>
    </vehicle>
    <vehicle id="288" depart="1784.0">
        <route edges="s_t t_e"/>
    </vehicle>
    <vehicle id="289" depart="1788.0">
        <route edges="s_t t_n"/>
    </vehicle>
    <vehicle id="290" depart="1791.0">
        <route edges="e_t t_s s_t t_e"/>
    </vehicle>
    <vehicle id="291" depart="1796.0">
        <route edges="s_t t_e"/>
    </vehicle>
    <vehicle id="292" depart="1797.0">
        <route edges="n_t t_s"/>
    </vehicle>
    <vehicle id="293" depart="1800.0">
        <route edges="n_t t_e e_t t_n"/>
    </vehicle>
    <vehicle id="294" depart="1801.0">
        <route edges="s_t t_n"/>
    </vehicle>
    <vehicle id="295" depart="1805.0">
        <route edges="w_t t_s"/>
    </vehicle>
    <vehicle id="296" depart="1805.0">
        <route edges="w_t t_n n_t t_w"/>
    </vehicle>
    <vehicle id="297" depart="1807.0">
        <route edges="s_t t_e"/>
    </vehicle>
    <vehicle id="298" depart="1812.0">
        <route edges="e_t t_w"/>
    </vehicle>
    <vehicle id="299" depart="1813.0">
        <route edges="w_t t_s"/>
    </vehicle>
    <vehicle id="300" depart="1813.0">
        <route edges="n_t t_e e_t t_n"/>
    </vehicle>
    <vehicle id="301" depart="1814.0">
        <route edges="s_t t_e e_t t_s"/>
    </vehicle>
    <vehicle id="302" depart="1819.0">
        <route edges="s_t t_e e_t t_s"/>
    </vehicle>
    <vehicle id="303" depart="1825.0">
        <route edges="w_t t_e"/>
    </vehicle>
    <vehicle id="304" depart="1826.0">
        <route edges="e_t t_w"/>
    </vehicle>
    <vehicle id="305" depart="1829.0">
        <route edges="w_t t_n n_t t_w"/>
    </vehicle>
    <vehicle id="306" depart="1831.0">
        <route edges="e_t t_s s_t t_e"/>
    </vehicle>
    <vehicle id="307" depart="1832.0">
        <route edges="n_t t_e e_t t_n"/>
    </vehicle>
    <vehicle id="308" depart="1835.0">
        <route edges="s_t t_e"/>
    </vehicle>
    <vehicle id="309" depart="1836.0">
        <route edges="s_t t_e"/>
    </vehicle>
    <vehicle id="310" depart="1849.0">
        <route edges="e_t t_s"/>
    </vehicle>
    <vehicle id="311" depart="1861.0">
        <route edges="s_t t_e e_t t_s"/>
    </vehicle>
    <vehicle id="312" depart="1869.0">
        <route edges="n_t t_e e_t t_n"/>
    </vehicle>
    <vehicle id="313" depart="1890.0">
        <route edges="e_t t_n"/>
    </vehicle>
    <vehicle id="314" depart="1894.0">
        <route edges="s_t t_w"/>
    </vehicle>
    <vehicle id="315" depart="1894.0">
        <route edges="e_t t_s s_t t_e"/>
    </vehicle>
    <vehicle id="316" depart="1906.0">
        <route edges="w_t t_s"/>
    </vehicle>
    <vehicle id="317" depart="1907.0">
        <route edges="w_t t_e"/>
    </vehicle>
    <vehicle id="318" depart="1907.0">
        <route edges="n_t t_e e_t t_n"/>
    </vehicle>
    <vehicle id="319" depart="1913.0">
        <route edges="w_t t_n"/>
    </vehicle>
    <vehicle id="320" depart="1915.0">
        <route edges="s_t t_w"/>
    </vehicle>
    <vehicle id="321" depart="1919.0">
        <route edges="n_t t_s"/>
    </vehicle>
    <vehicle id="322" depart="1921.0">
        <route edges="s_t t_w"/>
    </vehicle>
    <vehicle id="323" depart="1926.0">