<?xml version="1.0" encoding="UTF-8"?>

<!-- generated on 2023-06-30 22:43:20.138320 by randomTrips.py UNKNOWN
<configuration>
    <net-file value="nets/2way-single-intersection/single-intersection.net.xml"/>
    <route-file value="training/routes/2x2_tr_ep8.rou.xml"/>
    <seed value="8"/>
    <validate value="True"/>
    <end value="500.0"/>
</configuration>
-->

<!-- generated on 2023-06-30 22:43:20 by Eclipse SUMO duarouter Version v1_17_0+1256-16eabe86c67
<configuration xmlns:xsi="http://www.w3.org/2001/XMLSchema-instance" xsi:noNamespaceSchemaLocation="http://sumo.dlr.de/xsd/duarouterConfiguration.xsd">

    <input>
        <net-file value="nets/2way-single-intersection/single-intersection.net.xml"/>
        <route-files value="trips.trips.xml"/>
    </input>

    <output>
        <output-file value="training/routes/2x2_tr_ep8.rou.xml"/>
        <alternatives-output value="NUL"/>
    </output>

    <time>
        <begin value="0"/>
        <end value="500.0"/>
    </time>

    <report>
        <no-warnings value="true"/>
        <ignore-errors value="true"/>
        <no-step-log value="true"/>
    </report>

</configuration>
-->

<routes xmlns:xsi="http://www.w3.org/2001/XMLSchema-instance" xsi:noNamespaceSchemaLocation="http://sumo.dlr.de/xsd/routes_file.xsd">
    <vehicle id="0" depart="86.0">
        <route edges="e_t t_w"/>
    </vehicle>
    <vehicle id="1" depart="105.0">
        <route edges="e_t t_s"/>
    </vehicle>
    <vehicle id="2" depart="131.0">
        <route edges="e_t t_s s_t t_e"/>
    </vehicle>
    <vehicle id="3" depart="137.0">
        <route edges="w_t t_e"/>
    </vehicle>
    <vehicle id="4" depart="138.0">
        <route edges="s_t t_n"/>
    </vehicle>
    <vehicle id="5" depart="170.0">
        <route edges="n_t t_e e_t t_n"/>
    </vehicle>
    <vehicle id="6" depart="174.0">
        <route edges="e_t t_w"/>
    </vehicle>
    <vehicle id="7" depart="196.0">
        <route edges="e_t t_s s_t t_e"/>
    </vehicle>
    <vehicle id="8" depart="204.0">
        <route edges="e_t t_n"/>
    </vehicle>
    <vehicle id="9" depart="205.0">
        <route edges="n_t t_w"/>
    </vehicle>
    <vehicle id="10" depart="213.0">
        <route edges="n_t t_e"/>
    </vehicle>
    <vehicle id="11" depart="241.0">
        <route edges="n_t t_w"/>
    </vehicle>
    <vehicle id="12" depart="253.0">
        <route edges="e_t t_s"/>
    </vehicle>
    <vehicle id="13" depart="276.0">
        <route edges="n_t t_s"/>
    </vehicle>
    <vehicle id="14" depart="305.0">
        <route edges="n_t t_s"/>
    </vehicle>
    <vehicle id="15" depart="313.0">
        <route edges="n_t t_s"/>
    </vehicle>
    <vehicle id="16" depart="314.0">
        <route edges="w_t t_s"/>
    </vehicle>
    <vehicle id="17" depart="316.0">
        <route edges="e_t t_s s_t t_e"/>
    </vehicle>
    <vehicle id="18" depart="321.0">
        <route edges="w_t t_n"/>
    </vehicle>
    <vehicle id="19" depart="344.0">
        <route edges="e_t t_w"/>
    </vehicle>
    <vehicle id="20" depart="361.0">
        <route edges="s_t t_e e_t t_s"/>
    </vehicle>
    <vehicle id="21" depart="374.0">
        <route edges="w_t t_n"/>
    </vehicle>
    <vehicle id="22" depart="375.0">
        <route edges="n_t t_w"/>
    </vehicle>
    <vehicle id="23" depart="377.0">
        <route edges="e_t t_w"/>
    </vehicle>
    <vehicle id="24" depart="394.0">
        <route edges="e_t t_s"/>
    </vehicle>
    <vehicle id="25" depart="395.0">
        <route edges="s_t t_w"/>
    </vehicle>
    <vehicle id="26" depart="403.0">
        <route edges="w_t t_s"/>
    </vehicle>
    <vehicle id="27" depart="407.0">
        <route edges="e_t t_s s_t t_e"/>
    </vehicle>
    <vehicle id="28" depart="413.0">
        <route edges="s_t t_e e_t t_s"/>
    </vehicle>
    <vehicle id="29" depart="424.0">
        <route edges="e_t t_w"/>
    </vehicle>
    <vehicle id="30" depart="427.0">
        <route edges="s_t t_e e_t t_s"/>
    </vehicle>
    <vehicle id="31" depart="427.0">
        <route edges="e_t t_s s_t t_e"/>
    </vehicle>
    <vehicle id="32" depart="430.0">
        <route edges="e_t t_n"/>
    </vehicle>
    <vehicle id="33" depart="431.0">
        <route edges="n_t t_e e_t t_n"/>
    </vehicle>
    <vehicle id="34" depart="431.0">
        <route edges="n_t t_w"/>
    </vehicle>
    <vehicle id="35" depart="439.0">
        <route edges="w_t t_e"/>
    </vehicle>
    <vehicle id="36" depart="446.0">
        <route edges="n_t t_e"/>
    </vehicle>
    <vehicle id="37" depart="451.0">
        <route edges="s_t t_w"/>
    </vehicle>
    <vehicle id="38" depart="455.0">
        <route edges="e_t t_w"/>
    </vehicle>
    <vehicle id="39" depart="459.0">
        <route edges="n_t t_e"/>
    </vehicle>
    <vehicle id="40" depart="465.0">
        <route edges="w_t t_n"/>
    </vehicle>
    <vehicle id="41" depart="492.0">
        <route edges="e_t t_n"/>
    </vehicle>
    <vehicle id="42" depart="492.0">
        <route edges="e_t t_n"/>
    </vehicle>
    <vehicle id="43" depart="499.0">
        <route edges="n_t t_e e_t t_n"/>
    </vehicle>
    <vehicle id="44" depart="501.0">
        <route edges="s_t t_n"/>
    </vehicle>
    <vehicle id="45" depart="524.0">
        <route edges="e_t t_s s_t t_e"/>
    </vehicle>
    <vehicle id="46" depart="533.0">
        <route edges="e_t t_s"/>
    </vehicle>
    <vehicle id="47" depart="540.0">
        <route edges="n_t t_w"/>
    </vehicle>
    <vehicle id="48" depart="542.0">
        <route edges="s_t t_e e_t t_s"/>
    </vehicle>
    <vehicle id="49" depart="550.0">
        <route edges="w_t t_e"/>
    </vehicle>
    <vehicle id="50" depart="561.0">
        <route edges="e_t t_s s_t t_e"/>
    </vehicle>
    <vehicle id="51" depart="566.0">
        <route edges="n_t t_s"/>
    </vehicle>
    <vehicle id="52" depart="571.0">
        <route edges="s_t t_n"/>
    </vehicle>
    <vehicle id="53" depart="574.0">
        <route edges="w_t t_e"/>
    </vehicle>
    <vehicle id="54" depart="577.0">
        <route edges="w_t t_e"/>
    </vehicle>
    <vehicle id="55" depart="578.0">
        <route edges="w_t t_e"/>
    </vehicle>
    <vehicle id="56" depart="591.0">
        <route edges="w_t t_n n_t t_w"/>
    </vehicle>
    <vehicle id="57" depart="593.0">
        <route edges="w_t t_s"/>
    </vehicle>
    <vehicle id="58" depart="595.0">
        <route edges="e_t t_w"/>
    </vehicle>
    <vehicle id="59" depart="596.0">
        <route edges="n_t t_e"/>
    </vehicle>
    <vehicle id="60" depart="596.0">
        <route edges="s_t t_n"/>
    </vehicle>
    <vehicle id="61" depart="602.0">
        <route edges="n_t t_e"/>
    </vehicle>
    <vehicle id="62" depart="620.0">
        <route edges="e_t t_s"/>
    </vehicle>
    <vehicle id="63" depart="623.0">
        <route edges="n_t t_e"/>
    </vehicle>
    <vehicle id="64" depart="623.0">
        <route edges="n_t t_s"/>
    </vehicle>
    <vehicle id="65" depart="628.0">
        <route edges="s_t t_n"/>
    </vehicle>
    <vehicle id="66" depart="650.0">
        <route edges="n_t t_e e_t t_n"/>
    </vehicle>
    <vehicle id="67" depart="655.0">
        <route edges="e_t t_s s_t t_e"/>
    </vehicle>
    <vehicle id="68" depart="655.0">
        <route edges="n_t t_e"/>
    </vehicle>
    <vehicle id="69" depart="657.0">
        <route edges="s_t t_e e_t t_s"/>
    </vehicle>
    <vehicle id="70" depart="661.0">
        <route edges="s_t t_e"/>
    </vehicle>
    <vehicle id="71" depart="661.0">
        <route edges="n_t t_e e_t t_n"/>
    </vehicle>
    <vehicle id="72" depart="665.0">
        <route edges="e_t t_w"/>
    </vehicle>
    <vehicle id="73" depart="666.0">
        <route edges="w_t t_s"/>
    </vehicle>
    <vehicle id="74" depart="668.0">
        <route edges="s_t t_e"/>
    </vehicle>
    <vehicle id="75" depart="670.0">
        <route edges="e_t t_s"/>
    </vehicle>
    <vehicle id="76" depart="674.0">
        <route edges="s_t t_e e_t t_s"/>
    </vehicle>
    <vehicle id="77" depart="682.0">
        <route edges="e_t t_s"/>
    </vehicle>
    <vehicle id="78" depart="683.0">
        <route edges="w_t t_s"/>
    </vehicle>
    <vehicle id="79" depart="708.0">
        <route edges="w_t t_n n_t t_w"/>
    </vehicle>
    <vehicle id="80" depart="709.0">
        <route edges="e_t t_n"/>
    </vehicle>
    <vehicle id="81" depart="711.0">
        <route edges="s_t t_w"/>
    </vehicle>
    <vehicle id="82" depart="720.0">
        <route edges="n_t t_w"/>
    </vehicle>
    <vehicle id="83" depart="720.0">
        <route edges="w_t t_s"/>
    </vehicle>
    <vehicle id="84" depart="721.0">
        <route edges="s_t t_w"/>
    </vehicle>
    <vehicle id="85" depart="722.0">
        <route edges="w_t t_n"/>
    </vehicle>
    <vehicle id="86" depart="727.0">
        <route edges="w_t t_e"/>
    </vehicle>
    <vehicle id="87" depart="729.0">
        <route edges="n_t t_w"/>
    </vehicle>
    <vehicle id="88" depart="732.0">
        <route edges="w_t t_n"/>
    </vehicle>
    <vehicle id="89" depart="739.0">
        <route edges="n_t t_s"/>
    </vehicle>
    <vehicle id="90" depart="742.0">
        <route edges="w_t t_s"/>
    </vehicle>
    <vehicle id="91" depart="744.0">
        <route edges="w_t t_s"/>
    </vehicle>
    <vehicle id="92" depart="747.0">
        <route edges="w_t t_s"/>
    </vehicle>
    <vehicle id="93" depart="756.0">
        <route edges="n_t t_e e_t t_n"/>
    </vehicle>
    <vehicle id="94" depart="759.0">
        <route edges="n_t t_s"/>
    </vehicle>
    <vehicle id="95" depart="762.0">
        <route edges="w_t t_n"/>
    </vehicle>
    <vehicle id="96" depart="766.0">
        <route edges="e_t t_s"/>
    </vehicle>
    <vehicle id="97" depart="787.0">
        <route edges="n_t t_e e_t t_n"/>
    </vehicle>
    <vehicle id="98" depart="789.0">
        <route edges="e_t t_w"/>
    </vehicle>
    <vehicle id="99" depart="793.0">
        <route edges="n_t t_e e_t t_n"/>
    </vehicle>
    <vehicle id="100" depart="795.0">
        <route edges="w_t t_s"/>
    </vehicle>
    <vehicle id="101" depart="797.0">
        <route edges="n_t t_w"/>
    </vehicle>
    <vehicle id="102" depart="799.0">
        <route edges="n_t t_e e_t t_n"/>
    </vehicle>
    <vehicle id="103" depart="804.0">
        <route edges="w_t t_n n_t t_w"/>
    </vehicle>
    <vehicle id="104" depart="806.0">
        <route edges="s_t t_e"/>
    </vehicle>
    <vehicle id="105" depart="807.0">
        <route edges="w_t t_s"/>
    </vehicle>
    <vehicle id="106" depart="811.0">
        <route edges="w_t t_n"/>
    </vehicle>
    <vehicle id="107" depart="816.0">
        <route edges="w_t t_n n_t t_w"/>
    </vehicle>
    <vehicle id="108" depart="818.0">
        <route edges="n_t t_s"/>
    </vehicle>
    <vehicle id="109" depart="820.0">
        <route edges="w_t t_n n_t t_w"/>
    </vehicle>
    <vehicle id="110" depart="823.0">
        <route edges="w_t t_n n_t t_w"/>
    </vehicle>
    <vehicle id="111" depart="826.0">
        <route edges="e_t t_s"/>
    </vehicle>
    <vehicle id="112" depart="829.0">
        <route edges="s_t t_e"/>
    </vehicle>
    <vehicle id="113" depart="836.0">
        <route edges="n_t t_w"/>
    </vehicle>
    <vehicle id="114" depart="842.0">
        <route edges="w_t t_n n_t t_w"/>
    </vehicle>
    <vehicle id="115" depart="849.0">
        <route edges="e_t t_s"/>
    </vehicle>
    <vehicle id="116" depart="857.0">
        <route edges="w_t t_s"/>
    </vehicle>
    <vehicle id="117" depart="862.0">
        <route edges="n_t t_e"/>
    </vehicle>
    <vehicle id="118" depart="862.0">
        <route edges="w_t t_n n_t t_w"/>
    </vehicle>
    <vehicle id="119" depart="862.0">
        <route edges="s_t t_n"/>
    </vehicle>
    <vehicle id="120" depart="866.0">
        <route edges="w_t t_n n_t t_w"/>
    </vehicle>
    <vehicle id="121" depart="870.0">
        <route edges="s_t t_e e_t t_s"/>
    </vehicle>
    <vehicle id="122" depart="872.0">
        <route edges="n_t t_e e_t t_n"/>
    </vehicle>
    <vehicle id="123" depart="872.0">
        <route edges="n_t t_e e_t t_n"/>
    </vehicle>
    <vehicle id="124" depart="874.0">
        <route edges="s_t t_e"/>
    </vehicle>
    <vehicle id="125" depart="877.0">
        <route edges="s_t t_n"/>
    </vehicle>
    <vehicle id="126" depart="877.0">
        <route edges="e_t t_n"/>
    </vehicle>
    <vehicle id="127" depart="883.0">
        <route edges="n_t t_e e_t t_n"/>
    </vehicle>
    <vehicle id="128" depart="883.0">
        <route edges="w_t t_e"/>
    </vehicle>
    <vehicle id="129" depart="892.0">
        <route edges="e_t t_n"/>
    </vehicle>
    <vehicle id="130" depart="896.0">
        <route edges="e_t t_s"/>
    </vehicle>
    <vehicle id="131" depart="902.0">
        <route edges="e_t t_s s_t t_e"/>
    </vehicle>
    <vehicle id="132" depart="905.0">
        <route edges="s_t t_e e_t t_s"/>
    </vehicle>
    <vehicle id="133" depart="907.0">
        <route edges="w_t t_s"/>
    </vehicle>
    <vehicle id="134" depart="908.0">
        <route edges="n_t t_w"/>
    </vehicle>
    <vehicle id="135" depart="912.0">
        <route edges="s_t t_n"/>
    </vehicle>
    <vehicle id="136" depart="914.0">
        <route edges="s_t t_w"/>
    </vehicle>
    <vehicle id="137" depart="915.0">
        <route edges="w_t t_n n_t t_w"/>
    </vehicle>
    <vehicle id="138" depart="916.0">
        <route edges="e_t t_n"/>
    </vehicle>
    <vehicle id="139" depart="925.0">
        <route edges="n_t t_e"/>
    </vehicle>
    <vehicle id="140" depart="930.0">
        <route edges="w_t t_e"/>
    </vehicle>
    <vehicle id="141" depart="934.0">
        <route edges="w_t t_s"/>
    </vehicle>
    <vehicle id="142" depart="936.0">
        <route edges="s_t t_n"/>
    </vehicle>
    <vehicle id="143" depart="937.0">
        <route edges="w_t t_s"/>
    </vehicle>
    <vehicle id="144" depart="938.0">
        <route edges="w_t t_n n_t t_w"/>
    </vehicle>
    <vehicle id="145" depart="949.0">
        <route edges="s_t t_w"/>
    </vehicle>
    <vehicle id="146" depart="951.0">
        <route edges="n_t t_e e_t t_n"/>
    </vehicle>
    <vehicle id="147" depart="952.0">
        <route edges="w_t t_s"/>
    </vehicle>
    <vehicle id="148" depart="961.0">
        <route edges="n_t t_s"/>
    </vehicle>
    <vehicle id="149" depart="961.0">
        <route edges="n_t t_e"/>
    </vehicle>
    <vehicle id="150" depart="966.0">
        <route edges="w_t t_n"/>
    </vehicle>
    <vehicle id="151" depart="969.0">
        <route edges="w_t t_s"/>
    </vehicle>
    <vehicle id="152" depart="972.0">
        <route edges="w_t t_n"/>
    </vehicle>
    <vehicle id="153" depart="975.0">
        <route edges="e_t t_s"/>
    </vehicle>
    <vehicle id="154" depart="981.0">
        <route edges="w_t t_n n_t t_w"/>
    </vehicle>
    <vehicle id="155" depart="993.0">
        <route edges="s_t t_e"/>
    </vehicle>
    <vehicle id="156" depart="1003.0">
        <route edges="n_t t_e"/>
    </vehicle>
    <vehicle id="157" depart="1010.0">
        <route edges="n_t t_w"/>
    </vehicle>
    <vehicle id="158" depart="1013.0">
        <route edges="n_t t_s"/>
    </vehicle>
    <vehicle id="159" depart="1020.0">
        <route edges="s_t t_e"/>
    </vehicle>
    <vehicle id="160" depart="1026.0">
        <route edges="s_t t_e"/>
    </vehicle>
    <vehicle id="161" depart="1028.0">
        <route edges="e_t t_s"/>
    </vehicle>
    <vehicle id="162" depart="1028.0">
        <route edges="e_t t_w"/>
    </vehicle>
    <vehicle id="163" depart="1029.0">
        <route edges="n_t t_s"/>
    </vehicle>
    <vehicle id="164" depart="1038.0">
        <route edges="w_t t_e"/>
    </vehicle>
    <vehicle id="165" depart="1038.0">
        <route edges="w_t t_e"/>
    </vehicle>
    <vehicle id="166" depart="1038.0">
        <route edges="s_t t_e e_t t_s"/>
    </vehicle>
    <vehicle id="167" depart="1047.0">
        <route edges="w_t t_n"/>
    </vehicle>
    <vehicle id="168" depart="1055.0">
        <route edges="w_t t_s"/>
    </vehicle>
    <vehicle id="169" depart="1058.0">
        <route edges="n_t t_e"/>
    </vehicle>
    <vehicle id="170" depart="1062.0">
        <route edges="e_t t_n"/>
    </vehicle>
    <vehicle id="171" depart="1066.0">
        <route edges="n_t t_e e_t t_n"/>
    </vehicle>
    <vehicle id="172" depart="1074.0">
        <route edges="w_t t_n"/>
    </vehicle>
    <vehicle id="173" depart="1074.0">
        <route edges="s_t t_e"/>
    </vehicle>
    <vehicle id="174" depart="1082.0">
        <route edges="e_t t_s"/>
    </vehicle>
    <vehicle id="175" depart="1083.0">
        <route edges="w_t t_n"/>
    </vehicle>
    <vehicle id="176" depart="1085.0">
        <route edges="e_t t_s s_t t_e"/>
    </vehicle>
    <vehicle id="177" depart="1091.0">
        <route edges="n_t t_e e_t t_n"/>
    </vehicle>
    <vehicle id="178" depart="1095.0">
        <route edges="s_t t_n"/>
    </vehicle>
    <vehicle id="179" depart="1101.0">
        <route edges="s_t t_w"/>
    </vehicle>
    <vehicle id="180" depart="1103.0">
        <route edges="w_t t_s"/>
    </vehicle>
    <vehicle id="181" depart="1112.0">
        <route edges="s_t t_n"/>
    </vehicle>
    <vehicle id="182" depart="1116.0">
        <route edges="w_t t_n"/>
    </vehicle>
    <vehicle id="183" depart="1117.0">
        <route edges="w_t t_n"/>
    </vehicle>
    <vehicle id="184" depart="1118.0">
        <route edges="s_t t_n"/>
    </vehicle>
    <vehicle id="185" depart="1128.0">
        <route edges="s_t t_n"/>
    </vehicle>
    <vehicle id="186" depart="1133.0">
        <route edges="s_t t_e e_t t_s"/>
    </vehicle>
    <vehicle id="187" depart="1135.0">
        <route edges="n_t t_s"/>
    </vehicle>
    <vehicle id="188" depart="1142.0">
        <route edges="n_t t_e e_t t_n"/>
    </vehicle>
    <vehicle id="189" depart="1144.0">
        <route edges="n_t t_s"/>
    </vehicle>
    <vehicle id="190" depart="1145.0">
        <route edges="s_t t_e"/>
    </vehicle>
    <vehicle id="191" depart="1146.0">
        <route edges="e_t t_w"/>
    </vehicle>
    <vehicle id="192" depart="1153.0">
        <route edges="e_t t_w"/>
    </vehicle>
    <vehicle id="193" depart="1168.0">
        <route edges="w_t t_e"/>
    </vehicle>
    <vehicle id="194" depart="1168.0">
        <route edges="s_t t_n"/>
    </vehicle>
    <vehicle id="195" depart="1173.0">
        <route edges="w_t t_e"/>
    </vehicle>
    <vehicle id="196" depart="1174.0">
        <route edges="e_t t_s s_t t_e"/>
    </vehicle>
    <vehicle id="197" depart="1175.0">
        <route edges="s_t t_e"/>
    </vehicle>
    <vehicle id="198" depart="1175.0">
        <route edges="n_t t_w"/>
    </vehicle>
    <vehicle id="199" depart="1176.0">
        <route edges="s_t t_e e_t t_s"/>
    </vehicle>
    <vehicle id="200" depart="1191.0">
        <route edges="s_t t_e e_t t_s"/>
    </vehicle>
    <vehicle id="201" depart="1192.0">
        <route edges="e_t t_w"/>
    </vehicle>
    <vehicle id="202" depart="1203.0">
        <route edges="n_t t_w"/>
    </vehicle>
    <vehicle id="203" depart="1213.0">
        <route edges="n_t t_w"/>
    </vehicle>
    <vehicle id="204" depart="1223.0">
        <route edges="e_t t_w"/>
    </vehicle>
    <vehicle id="205" depart="1227.0">
        <route edges="e_t t_s"/>
    </vehicle>
    <vehicle id="206" depart="1232.0">
        <route edges="n_t t_w"/>
    </vehicle>
    <vehicle id="207" depart="1233.0">
        <route edges="s_t t_w"/>
    </vehicle>
    <vehicle id="208" depart="1241.0">
        <route edges="w_t t_n"/>
    </vehicle>
    <vehicle id="209" depart="1243.0">
        <route edges="e_t t_s s_t t_e"/>
    </vehicle>
    <vehicle id="210" depart="1248.0">
        <route edges="s_t t_w"/>
    </vehicle>
    <vehicle id="211" depart="1257.0">
        <route edges="s_t t_n"/>
    </vehicle>
    <vehicle id="212" depart="1260.0">
        <route edges="s_t t_e e_t t_s"/>
    </vehicle>
    <vehicle id="213" depart="1262.0">
        <route edges="n_t t_s"/>
    </vehicle>
    <vehicle id="214" depart="1263.0">
        <route edges="e_t t_s s_t t_e"/>
    </vehicle>
    <vehicle id="215" depart="1273.0">
        <route edges="e_t t_n"/>
    </vehicle>
    <vehicle id="216" depart="1284.0">
        <route edges="s_t t_e"/>
    </vehicle>
    <vehicle id="217" depart="1291.0">
        <route edges="n_t t_s"/>
    </vehicle>
    <vehicle id="218" depart="1304.0">
        <route edges="n_t t_s"/>
    </vehicle>
    <vehicle id="219" depart="1311.0">
        <route edges="s_t t_n"/>
    </vehicle>
    <vehicle id="220" depart="1313.0">
        <route edges="e_t t_s"/>
    </vehicle>
    <vehicle id="221" depart="1317.0">
        <route edges="s_t t_e"/>
    </vehicle>
    <vehicle id="222" depart="1317.0">
        <route edges="w_t t_s"/>
    </vehicle>
    <vehicle id="223" depart="1318.0">
        <route edges="w_t t_n n_t t_w"/>
    </vehicle>
    <vehicle id="224" depart="1322.0">
        <route edges="n_t t_s"/>
    </vehicle>
    <vehicle id="225" depart="1323.0">
        <route edges="n_t t_s"/>
    </vehicle>
    <vehicle id="226" depart="1328.0">
        <route edges="e_t t_n"/>
    </vehicle>
    <vehicle id="227" depart="1329.0">
        <route edges="s_t t_w"/>
    </vehicle>
    <vehicle id="228" depart="1333.0">
        <route edges="s_t t_w"/>
    </vehicle>
    <vehicle id="229" depart="1341.0">
        <route edges="w_t t_n n_t t_w"/>
    </vehicle>
    <vehicle id="230" depart="1358.0">
        <route edges="s_t t_e e_t t_s"/>
    </vehicle>
    <vehicle id="231" depart="1359.0">
        <route edges="n_t t_e"/>
    </vehicle>
    <vehicle id="232" depart="1360.0">
        <route edges="w_t t_s"/>
    </vehicle>
    <vehicle id="233" depart="1362.0">
        <route edges="e_t t_s s_t t_e"/>
    </vehicle>
    <vehicle id="234" depart="1365.0">
        <route edges="e_t t_s"/>
    </vehicle>
    <vehicle id="235" depart="1377.0">
        <route edges="s_t t_e"/>
    </vehicle>
    <vehicle id="236" depart="1380.0">
        <route edges="s_t t_e e_t t_s"/>
    </vehicle>
    <vehicle id="237" depart="1385.0">
        <route edges="n_t t_e e_t t_n"/>
    </vehicle>
    <vehicle id="238" depart="1389.0">
        <route edges="w_t t_e"/>
    </vehicle>
    <vehicle id="239" depart="1391.0">
        <route edges="e_t t_s"/>
    </vehicle>
    <vehicle id="240" depart="1392.0">
        <route edges="w_t t_n n_t t_w"/>
    </vehicle>
    <vehicle id="241" depart="1395.0">
        <route edges="n_t t_w"/>
    </vehicle>
    <vehicle id="242" depart="1403.0">
        <route edges="e_t t_n"/>
    </vehicle>
    <vehicle id="243" depart="1404.0">
        <route edges="w_t t_s"/>
    </vehicle>
    <vehicle id="244" depart="1407.0">
        <route edges="n_t t_s"/>
    </vehicle>
    <vehicle id="245" depart="1419.0">
        <route edges="n_t t_s"/>
    </vehicle>
    <vehicle id="246" depart="1431.0">
        <route edges="w_t t_n n_t t_w"/>
    </vehicle>
    <vehicle id="247" depart="1436.0">
        <route edges="e_t t_w"/>
    </vehicle>
    <vehicle id="248" depart="1443.0">
        <route edges="w_t t_s"/>
    </vehicle>
    <vehicle id="249" depart="1444.0">
        <route edges="s_t t_n"/>
    </vehicle>
    <vehicle id="250" depart="1448.0">
        <route edges="n_t t_s"/>
    </vehicle>
    <vehicle id="251" depart="1450.0">
        <route edges="s_t t_e"/>
    </vehicle>
    <vehicle id="252" depart="1458.0">
        <route edges="w_t t_n"/>
    </vehicle>
    <vehicle id="253" depart="1462.0">
        <route edges="s_t t_e"/>
    </vehicle>
    <vehicle id="254" depart="1462.0">
        <route edges="s_t t_e"/>
    </vehicle>
    <vehicle id="255" depart="1481.0">
        <route edges="n_t t_e e_t t_n"/>
    </vehicle>
    <vehicle id="256" depart="1486.0">
        <route edges="n_t t_e e_t t_n"/>
    </vehicle>
    <vehicle id="257" depart="1488.0">
        <route edges="e_t t_n"/>
    </vehicle>
    <vehicle id="258" depart="1497.0">
        <route edges="w_t t_s"/>
    </vehicle>
    <vehicle id="259" depart="1507.0">
        <route edges="w_t t_n n_t t_w"/>
    </vehicle>
    <vehicle id="260" depart="1507.0">
        <route edges="n_t t_e e_t t_n"/>
    </vehicle>
    <vehicle id="261" depart="1514.0">
        <route edges="w_t t_n n_t t_w"/>
    </vehicle>
    <vehicle id="262" depart="1516.0">
        <route edges="s_t t_e e_t t_s"/>
    </vehicle>
    <vehicle id="263" depart="1530.0">
        <route edges="s_t t_e e_t t_s"/>
    </vehicle>
    <vehicle id="264" depart="1535.0">
        <route edges="s_t t_n"/>
    </vehicle>
    <vehicle id="265" depart="1541.0">
        <route edges="n_t t_e e_t t_n"/>
    </vehicle>
    <vehicle id="266" depart="1555.0">
        <route edges="w_t t_e"/>
    </vehicle>
    <vehicle id="267" depart="1560.0">
        <route edges="e_t t_w"/>
    </vehicle>
    <vehicle id="268" depart="1563.0">
        <route edges="s_t t_e e_t t_s"/>
    </vehicle>
    <vehicle id="269" depart="1565.0">
        <route edges="w_t t_s"/>
    </vehicle>
    <vehicle id="270" depart="1568.0">
        <route edges="s_t t_w"/>
    </vehicle>
    <vehicle id="271" depart="1572.0">
        <route edges="s_t t_n"/>
    </vehicle>
    <vehicle id="272" depart="1582.0">
        <route edges="e_t t_s s_t t_e"/>
    </vehicle>
    <vehicle id="273" depart="1589.0">
        <route edges="w_t t_n n_t t_w"/>
    </vehicle>
    <vehicle id="274" depart="1590.0">
        <route edges="n_t t_s"/>
    </vehicle>
    <vehicle id="275" depart="1591.0">
        <route edges="s_t t_e e_t t_s"/>
    </vehicle>
    <vehicle id="276" depart="1595.0">
        <route edges="n_t t_w"/>
    </vehicle>
    <vehicle id="277" depart="1598.0">
        <route edges="s_t t_e e_t t_s"/>
    </vehicle>
    <vehicle id="278" depart="1604.0">
        <route edges="s_t t_n"/>
    </vehicle>
    <vehicle id="279" depart="1606.0">
        <route edges="s_t t_e"/>
    </vehicle>
    <vehicle id="280" depart="1607.0">
        <route edges="s_t t_e e_t t_s"/>
    </vehicle>
    <vehicle id="281" depart="1612.0">
        <route edges="s_t t_n"/>
    </vehicle>
    <vehicle id="282" depart="1633.0">
        <route edges="e_t t_s s_t t_e"/>
    </vehicle>
    <vehicle id="283" depart="1637.0">
        <route edges="e_t t_s s_t t_e"/>
    </vehicle>
    <vehicle id="284" depart="1647.0">
        <route edges="n_t t_s"/>
    </vehicle>
    <vehicle id="285" depart="1656.0">
        <route edges="s_t t_n"/>
    </vehicle>
    <vehicle id="286" depart="1656.0">
        <route edges="w_t t_e"/>
    </vehicle>
    <vehicle id="287" depart="1665.0">
        <route edges="n_t t_e"/>
    </vehicle>
    <vehicle id="288" depart="1665.0">
        <route edges="s_t t_e e_t t_s"/>
    </vehicle>
    <vehicle id="289" depart="1669.0">
        <route edges="s_t t_n"/>
    </vehicle>
    <vehicle id="290" depart="1670.0">
        <route edges="n_t t_e e_t t_n"/>
    </vehicle>
    <vehicle id="291" depart="1674.0">
        <route edges="e_t t_s s_t t_e"/>
    </vehicle>
    <vehicle id="292" depart="1678.0">
        <route edges="n_t t_s"/>
    </vehicle>
    <vehicle id="293" depart="1684.0">
        <route edges="e_t t_w"/>
    </vehicle>
    <vehicle id="294" depart="1687.0">
        <route edges="e_t t_s s_t t_e"/>
    </vehicle>
    <vehicle id="295" depart="1689.0">
        <route edges="n_t t_e e_t t_n"/>
    </vehicle>
    <vehicle id="296" depart="1691.0">
        <route edges="s_t t_e e_t t_s"/>
    </vehicle>
    <vehicle id="297" depart="1692.0">
        <route edges="s_t t_w"/>
    </vehicle>
    <vehicle id="298" depart="1695.0">
        <route edges="n_t t_s"/>
    </vehicle>
    <vehicle id="299" depart="1699.0">
        <route edges="n_t t_e"/>
    </vehicle>
    <vehicle id="300" depart="1701.0">
        <route edges="e_t t_s s_t t_e"/>
    </vehicle>
    <vehicle id="301" depart="1705.0">
        <route edges="n_t t_e e_t t_n"/>
    </vehicle>
    <vehicle id="302" depart="1712.0">
        <route edges="s_t t_e e_t t_s"/>
    </vehicle>
    <vehicle id="303" depart="1718.0">
        <route edges="w_t t_e"/>
    </vehicle>
    <vehicle id="304" depart="1721.0">
        <route edges="w_t t_e"/>
    </vehicle>
    <vehicle id="305" depart="1723.0">
        <route edges="w_t t_n n_t t_w"/>
    </vehicle>
    <vehicle id="306" depart="1726.0">
        <route edges="n_t t_w"/>
    </vehicle>
    <vehicle id="307" depart="1730.0">
        <route edges="s_t t_e e_t t_s"/>
    </vehicle>
    <vehicle id="308" depart="1752.0">
        <route edges="w_t t_n n_t t_w"/>
    </vehicle>
    <vehicle id="309" depart="1753.0">
        <route edges="n_t t_e"/>
    </vehicle>
    <vehicle id="310" depart="1759.0">
        <route edges="w_t t_s"/>
    </vehicle>
    <vehicle id="311" depart="1759.0">
        <route edges="w_t t_e"/>
    </vehicle>
    <vehicle id="312" depart="1763.0">
        <route edges="w_t t_e"/>
    </vehicle>
    <vehicle id="313" depart="1767.0">
        <route edges="e_t t_n"/>
    </vehicle>
    <vehicle id="314" depart="1770.0">
        <route edges="w_t t_n"/>
    </vehicle>
    <vehicle id="315" depart="1775.0">
        <route edges="n_t t_e e_t t_n"/>
    </vehicle>
    <vehicle id="316" depart="1786.0">
        <route edges="e_t t_n"/>
    </vehicle>
    <vehicle id="317" depart="1790.0">
        <route edges="n_t t_e e_t t_n"/>
    </vehicle>
    <vehicle id="318" depart="1794.0">
        <route edges="s_t t_n"/>
    </vehicle>
    <vehicle id="319" depart="1797.0">
        <route edges="w_t t_n n_t t_w"/>
    </vehicle>
    <vehicle id="320" depart="1798.0">
        <route edges="s_t t_e"/>
    </vehicle>
    <vehicle id="321" depart="1800.0">
        <route edges="s_t t_e e_t t_s"/>
    </vehicle>
    <vehicle id="322" depart="1801.0">
        <route edges="s_t t_n"/>
    </vehicle>
    <vehicle id="323" depart="1802.0">
        <route edges="s_t t_w"/>
    </vehicle>
    <vehicle id="324" depart="1812.0">