<?xml version="1.0" encoding="UTF-8"?>

<!-- generated on 2023-06-30 22:42:11.049977 by randomTrips.py UNKNOWN
<configuration>
    <net-file value="nets/2way-single-intersection/single-intersection.net.xml"/>
    <route-file value="training/routes/2x2_tr_ep4.rou.xml"/>
    <seed value="4"/>
    <validate value="True"/>
    <end value="500.0"/>
</configuration>
-->

<!-- generated on 2023-06-30 22:42:11 by Eclipse SUMO duarouter Version v1_17_0+1256-16eabe86c67
<configuration xmlns:xsi="http://www.w3.org/2001/XMLSchema-instance" xsi:noNamespaceSchemaLocation="http://sumo.dlr.de/xsd/duarouterConfiguration.xsd">

    <input>
        <net-file value="nets/2way-single-intersection/single-intersection.net.xml"/>
        <route-files value="trips.trips.xml"/>
    </input>

    <output>
        <output-file value="training/routes/2x2_tr_ep4.rou.xml"/>
        <alternatives-output value="NUL"/>
    </output>

    <time>
        <begin value="0"/>
        <end value="500.0"/>
    </time>

    <report>
        <no-warnings value="true"/>
        <ignore-errors value="true"/>
        <no-step-log value="true"/>
    </report>

</configuration>
-->

<routes xmlns:xsi="http://www.w3.org/2001/XMLSchema-instance" xsi:noNamespaceSchemaLocation="http://sumo.dlr.de/xsd/routes_file.xsd">
    <vehicle id="0" depart="81.0">
        <route edges="e_t t_s s_t t_e"/>
    </vehicle>
    <vehicle id="1" depart="84.0">
        <route edges="n_t t_e"/>
    </vehicle>
    <vehicle id="2" depart="94.0">
        <route edges="e_t t_n"/>
    </vehicle>
    <vehicle id="3" depart="106.0">
        <route edges="w_t t_n n_t t_w"/>
    </vehicle>
    <vehicle id="4" depart="150.0">
        <route edges="w_t t_e"/>
    </vehicle>
    <vehicle id="5" depart="200.0">
        <route edges="s_t t_n"/>
    </vehicle>
    <vehicle id="6" depart="205.0">
        <route edges="e_t t_s s_t t_e"/>
    </vehicle>
    <vehicle id="7" depart="223.0">
        <route edges="e_t t_w"/>
    </vehicle>
    <vehicle id="8" depart="234.0">
        <route edges="w_t t_n n_t t_w"/>
    </vehicle>
    <vehicle id="9" depart="247.0">
        <route edges="w_t t_e"/>
    </vehicle>
    <vehicle id="10" depart="253.0">
        <route edges="n_t t_s"/>
    </vehicle>
    <vehicle id="11" depart="272.0">
        <route edges="s_t t_w"/>
    </vehicle>
    <vehicle id="12" depart="282.0">
        <route edges="w_t t_e"/>
    </vehicle>
    <vehicle id="13" depart="289.0">
        <route edges="s_t t_e e_t t_s"/>
    </vehicle>
    <vehicle id="14" depart="307.0">
        <route edges="s_t t_e"/>
    </vehicle>
    <vehicle id="15" depart="309.0">
        <route edges="n_t t_e"/>
    </vehicle>
    <vehicle id="16" depart="317.0">
        <route edges="w_t t_n n_t t_w"/>
    </vehicle>
    <vehicle id="17" depart="326.0">
        <route edges="s_t t_n"/>
    </vehicle>
    <vehicle id="18" depart="328.0">
        <route edges="w_t t_s"/>
    </vehicle>
    <vehicle id="19" depart="380.0">
        <route edges="w_t t_n n_t t_w"/>
    </vehicle>
    <vehicle id="20" depart="392.0">
        <route edges="s_t t_n"/>
    </vehicle>
    <vehicle id="21" depart="392.0">
        <route edges="s_t t_n"/>
    </vehicle>
    <vehicle id="22" depart="393.0">
        <route edges="e_t t_n"/>
    </vehicle>
    <vehicle id="23" depart="394.0">
        <route edges="w_t t_e"/>
    </vehicle>
    <vehicle id="24" depart="397.0">
        <route edges="e_t t_s"/>
    </vehicle>
    <vehicle id="25" depart="412.0">
        <route edges="n_t t_s"/>
    </vehicle>
    <vehicle id="26" depart="429.0">
        <route edges="n_t t_e e_t t_n"/>
    </vehicle>
    <vehicle id="27" depart="435.0">
        <route edges="w_t t_e"/>
    </vehicle>
    <vehicle id="28" depart="437.0">
        <route edges="n_t t_e"/>
    </vehicle>
    <vehicle id="29" depart="443.0">
        <route edges="s_t t_n"/>
    </vehicle>
    <vehicle id="30" depart="445.0">
        <route edges="n_t t_s"/>
    </vehicle>
    <vehicle id="31" depart="450.0">
        <route edges="n_t t_s"/>
    </vehicle>
    <vehicle id="32" depart="470.0">
        <route edges="w_t t_e"/>
    </vehicle>
    <vehicle id="33" depart="490.0">
        <route edges="e_t t_s s_t t_e"/>
    </vehicle>
    <vehicle id="34" depart="495.0">
        <route edges="w_t t_s"/>
    </vehicle>
    <vehicle id="35" depart="502.0">
        <route edges="e_t t_n"/>
    </vehicle>
    <vehicle id="36" depart="508.0">
        <route edges="e_t t_n"/>
    </vehicle>
    <vehicle id="37" depart="530.0">
        <route edges="e_t t_s"/>
    </vehicle>
    <vehicle id="38" depart="538.0">
        <route edges="w_t t_n n_t t_w"/>
    </vehicle>
    <vehicle id="39" depart="553.0">
        <route edges="s_t t_w"/>
    </vehicle>
    <vehicle id="40" depart="554.0">
        <route edges="e_t t_n"/>
    </vehicle>
    <vehicle id="41" depart="555.0">
        <route edges="w_t t_n n_t t_w"/>
    </vehicle>
    <vehicle id="42" depart="563.0">
        <route edges="n_t t_w"/>
    </vehicle>
    <vehicle id="43" depart="568.0">
        <route edges="s_t t_w"/>
    </vehicle>
    <vehicle id="44" depart="570.0">
        <route edges="n_t t_e"/>
    </vehicle>
    <vehicle id="45" depart="592.0">
        <route edges="n_t t_e"/>
    </vehicle>
    <vehicle id="46" depart="597.0">
        <route edges="n_t t_w"/>
    </vehicle>
    <vehicle id="47" depart="599.0">
        <route edges="n_t t_e"/>
    </vehicle>
    <vehicle id="48" depart="601.0">
        <route edges="e_t t_s s_t t_e"/>
    </vehicle>
    <vehicle id="49" depart="612.0">
        <route edges="w_t t_n"/>
    </vehicle>
    <vehicle id="50" depart="613.0">
        <route edges="n_t t_e"/>
    </vehicle>
    <vehicle id="51" depart="616.0">
        <route edges="w_t t_n"/>
    </vehicle>
    <vehicle id="52" depart="617.0">
        <route edges="e_t t_s s_t t_e"/>
    </vehicle>
    <vehicle id="53" depart="623.0">
        <route edges="e_t t_s s_t t_e"/>
    </vehicle>
    <vehicle id="54" depart="674.0">
        <route edges="s_t t_e"/>
    </vehicle>
    <vehicle id="55" depart="679.0">
        <route edges="e_t t_n"/>
    </vehicle>
    <vehicle id="56" depart="681.0">
        <route edges="e_t t_w"/>
    </vehicle>
    <vehicle id="57" depart="688.0">
        <route edges="e_t t_s"/>
    </vehicle>
    <vehicle id="58" depart="688.0">
        <route edges="w_t t_n"/>
    </vehicle>
    <vehicle id="59" depart="692.0">
        <route edges="w_t t_n"/>
    </vehicle>
    <vehicle id="60" depart="694.0">
        <route edges="e_t t_n"/>
    </vehicle>
    <vehicle id="61" depart="694.0">
        <route edges="e_t t_n"/>
    </vehicle>
    <vehicle id="62" depart="698.0">
        <route edges="e_t t_w"/>
    </vehicle>
    <vehicle id="63" depart="702.0">
        <route edges="w_t t_n"/>
    </vehicle>
    <vehicle id="64" depart="742.0">
        <route edges="e_t t_n"/>
    </vehicle>
    <vehicle id="65" depart="743.0">
        <route edges="e_t t_s s_t t_e"/>
    </vehicle>
    <vehicle id="66" depart="748.0">
        <route edges="e_t t_w"/>
    </vehicle>
    <vehicle id="67" depart="757.0">
        <route edges="e_t t_s s_t t_e"/>
    </vehicle>
    <vehicle id="68" depart="757.0">
        <route edges="w_t t_s"/>
    </vehicle>
    <vehicle id="69" depart="760.0">
        <route edges="w_t t_n"/>
    </vehicle>
    <vehicle id="70" depart="767.0">
        <route edges="w_t t_s"/>
    </vehicle>
    <vehicle id="71" depart="767.0">
        <route edges="w_t t_s"/>
    </vehicle>
    <vehicle id="72" depart="769.0">
        <route edges="n_t t_e"/>
    </vehicle>
    <vehicle id="73" depart="770.0">
        <route edges="e_t t_w"/>
    </vehicle>
    <vehicle id="74" depart="775.0">
        <route edges="w_t t_n n_t t_w"/>
    </vehicle>
    <vehicle id="75" depart="783.0">
        <route edges="n_t t_s"/>
    </vehicle>
    <vehicle id="76" depart="786.0">
        <route edges="w_t t_s"/>
    </vehicle>
    <vehicle id="77" depart="792.0">
        <route edges="w_t t_s"/>
    </vehicle>
    <vehicle id="78" depart="798.0">
        <route edges="s_t t_e e_t t_s"/>
    </vehicle>
    <vehicle id="79" depart="810.0">
        <route edges="n_t t_w"/>
    </vehicle>
    <vehicle id="80" depart="811.0">
        <route edges="w_t t_e"/>
    </vehicle>
    <vehicle id="81" depart="818.0">
        <route edges="w_t t_n n_t t_w"/>
    </vehicle>
    <vehicle id="82" depart="819.0">
        <route edges="s_t t_e"/>
    </vehicle>
    <vehicle id="83" depart="820.0">
        <route edges="w_t t_e"/>
    </vehicle>
    <vehicle id="84" depart="821.0">
        <route edges="w_t t_s"/>
    </vehicle>
    <vehicle id="85" depart="826.0">
        <route edges="e_t t_s s_t t_e"/>
    </vehicle>
    <vehicle id="86" depart="828.0">
        <route edges="s_t t_e e_t t_s"/>
    </vehicle>
    <vehicle id="87" depart="833.0">
        <route edges="s_t t_w"/>
    </vehicle>
    <vehicle id="88" depart="834.0">
        <route edges="e_t t_s s_t t_e"/>
    </vehicle>
    <vehicle id="89" depart="835.0">
        <route edges="w_t t_e"/>
    </vehicle>
    <vehicle id="90" depart="836.0">
        <route edges="w_t t_e"/>
    </vehicle>
    <vehicle id="91" depart="837.0">
        <route edges="w_t t_n n_t t_w"/>
    </vehicle>
    <vehicle id="92" depart="837.0">
        <route edges="w_t t_s"/>
    </vehicle>
    <vehicle id="93" depart="839.0">
        <route edges="w_t t_e"/>
    </vehicle>
    <vehicle id="94" depart="840.0">
        <route edges="s_t t_n"/>
    </vehicle>
    <vehicle id="95" depart="844.0">
        <route edges="w_t t_n n_t t_w"/>
    </vehicle>
    <vehicle id="96" depart="846.0">
        <route edges="n_t t_s"/>
    </vehicle>
    <vehicle id="97" depart="851.0">
        <route edges="e_t t_s s_t t_e"/>
    </vehicle>
    <vehicle id="98" depart="861.0">
        <route edges="s_t t_n"/>
    </vehicle>
    <vehicle id="99" depart="866.0">
        <route edges="w_t t_s"/>
    </vehicle>
    <vehicle id="100" depart="882.0">
        <route edges="e_t t_n"/>
    </vehicle>
    <vehicle id="101" depart="887.0">
        <route edges="w_t t_s"/>
    </vehicle>
    <vehicle id="102" depart="892.0">
        <route edges="e_t t_w"/>
    </vehicle>
    <vehicle id="103" depart="893.0">
        <route edges="w_t t_e"/>
    </vehicle>
    <vehicle id="104" depart="893.0">
        <route edges="s_t t_n"/>
    </vehicle>
    <vehicle id="105" depart="893.0">
        <route edges="w_t t_n"/>
    </vehicle>
    <vehicle id="106" depart="894.0">
        <route edges="e_t t_n"/>
    </vehicle>
    <vehicle id="107" depart="896.0">
        <route edges="w_t t_e"/>
    </vehicle>
    <vehicle id="108" depart="897.0">
        <route edges="e_t t_s"/>
    </vehicle>
    <vehicle id="109" depart="898.0">
        <route edges="w_t t_s"/>
    </vehicle>
    <vehicle id="110" depart="900.0">
        <route edges="n_t t_w"/>
    </vehicle>
    <vehicle id="111" depart="902.0">
        <route edges="w_t t_e"/>
    </vehicle>
    <vehicle id="112" depart="902.0">
        <route edges="w_t t_e"/>
    </vehicle>
    <vehicle id="113" depart="904.0">
        <route edges="n_t t_w"/>
    </vehicle>
    <vehicle id="114" depart="936.0">
        <route edges="n_t t_w"/>
    </vehicle>
    <vehicle id="115" depart="947.0">
        <route edges="e_t t_w"/>
    </vehicle>
    <vehicle id="116" depart="955.0">
        <route edges="e_t t_s s_t t_e"/>
    </vehicle>
    <vehicle id="117" depart="962.0">
        <route edges="n_t t_e e_t t_n"/>
    </vehicle>
    <vehicle id="118" depart="972.0">
        <route edges="s_t t_w"/>
    </vehicle>
    <vehicle id="119" depart="982.0">
        <route edges="s_t t_e"/>
    </vehicle>
    <vehicle id="120" depart="991.0">
        <route edges="n_t t_s"/>
    </vehicle>
    <vehicle id="121" depart="998.0">
        <route edges="n_t t_s"/>
    </vehicle>
    <vehicle id="122" depart="998.0">
        <route edges="n_t t_e"/>
    </vehicle>
    <vehicle id="123" depart="1010.0">
        <route edges="e_t t_w"/>
    </vehicle>
    <vehicle id="124" depart="1014.0">
        <route edges="n_t t_w"/>
    </vehicle>
    <vehicle id="125" depart="1020.0">
        <route edges="w_t t_s"/>
    </vehicle>
    <vehicle id="126" depart="1032.0">
        <route edges="s_t t_e e_t t_s"/>
    </vehicle>
    <vehicle id="127" depart="1041.0">
        <route edges="n_t t_w"/>
    </vehicle>
    <vehicle id="128" depart="1045.0">
        <route edges="n_t t_w"/>
    </vehicle>
    <vehicle id="129" depart="1053.0">
        <route edges="n_t t_w"/>
    </vehicle>
    <vehicle id="130" depart="1054.0">
        <route edges="w_t t_s"/>
    </vehicle>
    <vehicle id="131" depart="1068.0">
        <route edges="n_t t_e"/>
    </vehicle>
    <vehicle id="132" depart="1069.0">
        <route edges="w_t t_n"/>
    </vehicle>
    <vehicle id="133" depart="1073.0">
        <route edges="s_t t_e"/>
    </vehicle>
    <vehicle id="134" depart="1076.0">
        <route edges="e_t t_s s_t t_e"/>
    </vehicle>
    <vehicle id="135" depart="1086.0">
        <route edges="w_t t_e"/>
    </vehicle>
    <vehicle id="136" depart="1086.0">
        <route edges="w_t t_n"/>
    </vehicle>
    <vehicle id="137" depart="1088.0">
        <route edges="s_t t_n"/>
    </vehicle>
    <vehicle id="138" depart="1092.0">
        <route edges="s_t t_e"/>
    </vehicle>
    <vehicle id="139" depart="1099.0">
        <route edges="n_t t_w"/>
    </vehicle>
    <vehicle id="140" depart="1109.0">
        <route edges="e_t t_s"/>
    </vehicle>
    <vehicle id="141" depart="1114.0">
        <route edges="n_t t_e e_t t_n"/>
    </vehicle>
    <vehicle id="142" depart="1116.0">
        <route edges="e_t t_s s_t t_e"/>
    </vehicle>
    <vehicle id="143" depart="1117.0">
        <route edges="w_t t_n n_t t_w"/>
    </vehicle>
    <vehicle id="144" depart="1124.0">
        <route edges="w_t t_n n_t t_w"/>
    </vehicle>
    <vehicle id="145" depart="1127.0">
        <route edges="w_t t_e"/>
    </vehicle>
    <vehicle id="146" depart="1131.0">
        <route edges="s_t t_n"/>
    </vehicle>
    <vehicle id="147" depart="1133.0">
        <route edges="s_t t_w"/>
    </vehicle>
    <vehicle id="148" depart="1137.0">
        <route edges="w_t t_n n_t t_w"/>
    </vehicle>
    <vehicle id="149" depart="1139.0">
        <route edges="e_t t_s"/>
    </vehicle>
    <vehicle id="150" depart="1142.0">
        <route edges="s_t t_e e_t t_s"/>
    </vehicle>
    <vehicle id="151" depart="1143.0">
        <route edges="s_t t_w"/>
    </vehicle>
    <vehicle id="152" depart="1151.0">
        <route edges="n_t t_w"/>
    </vehicle>
    <vehicle id="153" depart="1152.0">
        <route edges="n_t t_s"/>
    </vehicle>
    <vehicle id="154" depart="1153.0">
        <route edges="w_t t_s"/>
    </vehicle>
    <vehicle id="155" depart="1163.0">
        <route edges="n_t t_e"/>
    </vehicle>
    <vehicle id="156" depart="1170.0">
        <route edges="n_t t_s"/>
    </vehicle>
    <vehicle id="157" depart="1172.0">
        <route edges="w_t t_n n_t t_w"/>
    </vehicle>
    <vehicle id="158" depart="1176.0">
        <route edges="n_t t_e e_t t_n"/>
    </vehicle>
    <vehicle id="159" depart="1188.0">
        <route edges="w_t t_n"/>
    </vehicle>
    <vehicle id="160" depart="1188.0">
        <route edges="n_t t_e"/>
    </vehicle>
    <vehicle id="161" depart="1189.0">
        <route edges="e_t t_s"/>
    </vehicle>
    <vehicle id="162" depart="1190.0">
        <route edges="s_t t_e e_t t_s"/>
    </vehicle>
    <vehicle id="163" depart="1196.0">
        <route edges="n_t t_w"/>
    </vehicle>
    <vehicle id="164" depart="1196.0">
        <route edges="s_t t_e"/>
    </vehicle>
    <vehicle id="165" depart="1201.0">
        <route edges="e_t t_w"/>
    </vehicle>
    <vehicle id="166" depart="1204.0">
        <route edges="w_t t_n n_t t_w"/>
    </vehicle>
    <vehicle id="167" depart="1207.0">
        <route edges="s_t t_n"/>
    </vehicle>
    <vehicle id="168" depart="1211.0">
        <route edges="e_t t_n"/>
    </vehicle>
    <vehicle id="169" depart="1212.0">
        <route edges="e_t t_w"/>
    </vehicle>
    <vehicle id="170" depart="1219.0">
        <route edges="w_t t_n n_t t_w"/>
    </vehicle>
    <vehicle id="171" depart="1223.0">
        <route edges="e_t t_s s_t t_e"/>
    </vehicle>
    <vehicle id="172" depart="1234.0">
        <route edges="n_t t_w"/>
    </vehicle>
    <vehicle id="173" depart="1237.0">
        <route edges="e_t t_w"/>
    </vehicle>
    <vehicle id="174" depart="1237.0">
        <route edges="s_t t_e e_t t_s"/>
    </vehicle>
    <vehicle id="175" depart="1244.0">
        <route edges="w_t t_n"/>
    </vehicle>
    <vehicle id="176" depart="1245.0">
        <route edges="s_t t_e"/>
    </vehicle>
    <vehicle id="177" depart="1247.0">
        <route edges="e_t t_s s_t t_e"/>
    </vehicle>
    <vehicle id="178" depart="1248.0">
        <route edges="n_t t_e"/>
    </vehicle>
    <vehicle id="179" depart="1251.0">
        <route edges="e_t t_w"/>
    </vehicle>
    <vehicle id="180" depart="1257.0">
        <route edges="n_t t_w"/>
    </vehicle>
    <vehicle id="181" depart="1265.0">
        <route edges="s_t t_e e_t t_s"/>
    </vehicle>
    <vehicle id="182" depart="1266.0">
        <route edges="s_t t_w"/>
    </vehicle>
    <vehicle id="183" depart="1267.0">
        <route edges="w_t t_s"/>
    </vehicle>
    <vehicle id="184" depart="1271.0">
        <route edges="s_t t_e e_t t_s"/>
    </vehicle>
    <vehicle id="185" depart="1284.0">
        <route edges="s_t t_e e_t t_s"/>
    </vehicle>
    <vehicle id="186" depart="1285.0">
        <route edges="s_t t_e"/>
    </vehicle>
    <vehicle id="187" depart="1291.0">
        <route edges="w_t t_n"/>
    </vehicle>
    <vehicle id="188" depart="1296.0">
        <route edges="e_t t_s s_t t_e"/>
    </vehicle>
    <vehicle id="189" depart="1297.0">
        <route edges="w_t t_n"/>
    </vehicle>
    <vehicle id="190" depart="1307.0">
        <route edges="n_t t_s"/>
    </vehicle>
    <vehicle id="191" depart="1309.0">
        <route edges="w_t t_n"/>
    </vehicle>
    <vehicle id="192" depart="1313.0">
        <route edges="n_t t_e e_t t_n"/>
    </vehicle>
    <vehicle id="193" depart="1315.0">
        <route edges="e_t t_w"/>
    </vehicle>
    <vehicle id="194" depart="1317.0">
        <route edges="e_t t_w"/>
    </vehicle>
    <vehicle id="195" depart="1317.0">
        <route edges="e_t t_s s_t t_e"/>
    </vehicle>
    <vehicle id="196" depart="1321.0">
        <route edges="w_t t_n n_t t_w"/>
    </vehicle>
    <vehicle id="197" depart="1323.0">
        <route edges="e_t t_s"/>
    </vehicle>
    <vehicle id="198" depart="1325.0">
        <route edges="n_t t_s"/>
    </vehicle>
    <vehicle id="199" depart="1327.0">
        <route edges="e_t t_w"/>
    </vehicle>
    <vehicle id="200" depart="1333.0">
        <route edges="w_t t_s"/>
    </vehicle>
    <vehicle id="201" depart="1334.0">
        <route edges="w_t t_n n_t t_w"/>
    </vehicle>
    <vehicle id="202" depart="1340.0">
        <route edges="n_t t_w"/>
    </vehicle>
    <vehicle id="203" depart="1343.0">
        <route edges="w_t t_s"/>
    </vehicle>
    <vehicle id="204" depart="1347.0">
        <route edges="e_t t_s"/>
    </vehicle>
    <vehicle id="205" depart="1349.0">
        <route edges="w_t t_n"/>
    </vehicle>
    <vehicle id="206" depart="1355.0">
        <route edges="s_t t_w"/>
    </vehicle>
    <vehicle id="207" depart="1358.0">
        <route edges="s_t t_e"/>
    </vehicle>
    <vehicle id="208" depart="1358.0">
        <route edges="s_t t_n"/>
    </vehicle>
    <vehicle id="209" depart="1361.0">
        <route edges="w_t t_s"/>
    </vehicle>
    <vehicle id="210" depart="1364.0">
        <route edges="n_t t_w"/>
    </vehicle>
    <vehicle id="211" depart="1366.0">
        <route edges="s_t t_n"/>
    </vehicle>
    <vehicle id="212" depart="1371.0">
        <route edges="w_t t_n n_t t_w"/>
    </vehicle>
    <vehicle id="213" depart="1378.0">
        <route edges="w_t t_n n_t t_w"/>
    </vehicle>
    <vehicle id="214" depart="1380.0">
        <route edges="s_t t_e e_t t_s"/>
    </vehicle>
    <vehicle id="215" depart="1388.0">
        <route edges="s_t t_e e_t t_s"/>
    </vehicle>
    <vehicle id="216" depart="1390.0">
        <route edges="w_t t_n"/>
    </vehicle>
    <vehicle id="217" depart="1394.0">
        <route edges="e_t t_s"/>
    </vehicle>
    <vehicle id="218" depart="1397.0">
        <route edges="n_t t_s"/>
    </vehicle>
    <vehicle id="219" depart="1398.0">
        <route edges="s_t t_e"/>
    </vehicle>
    <vehicle id="220" depart="1406.0">
        <route edges="e_t t_s s_t t_e"/>
    </vehicle>
    <vehicle id="221" depart="1408.0">
        <route edges="w_t t_n n_t t_w"/>
    </vehicle>
    <vehicle id="222" depart="1409.0">
        <route edges="s_t t_e"/>
    </vehicle>
    <vehicle id="223" depart="1410.0">
        <route edges="w_t t_n n_t t_w"/>
    </vehicle>
    <vehicle id="224" depart="1414.0">
        <route edges="s_t t_e"/>
    </vehicle>
    <vehicle id="225" depart="1425.0">
        <route edges="w_t t_s"/>
    </vehicle>
    <vehicle id="226" depart="1428.0">
        <route edges="s_t t_e"/>
    </vehicle>
    <vehicle id="227" depart="1429.0">
        <route edges="s_t t_e"/>
    </vehicle>
    <vehicle id="228" depart="1431.0">
        <route edges="n_t t_e"/>
    </vehicle>
    <vehicle id="229" depart="1431.0">
        <route edges="n_t t_w"/>
    </vehicle>
    <vehicle id="230" depart="1441.0">
        <route edges="s_t t_w"/>
    </vehicle>
    <vehicle id="231" depart="1449.0">
        <route edges="n_t t_e e_t t_n"/>
    </vehicle>
    <vehicle id="232" depart="1449.0">
        <route edges="s_t t_e"/>
    </vehicle>
    <vehicle id="233" depart="1453.0">
        <route edges="n_t t_w"/>
    </vehicle>
    <vehicle id="234" depart="1453.0">
        <route edges="w_t t_n n_t t_w"/>
    </vehicle>
    <vehicle id="235" depart="1461.0">
        <route edges="n_t t_s"/>
    </vehicle>
    <vehicle id="236" depart="1465.0">
        <route edges="w_t t_s"/>
    </vehicle>
    <vehicle id="237" depart="1474.0">
        <route edges="n_t t_e"/>
    </vehicle>
    <vehicle id="238" depart="1479.0">
        <route edges="e_t t_w"/>
    </vehicle>
    <vehicle id="239" depart="1486.0">
        <route edges="w_t t_n"/>
    </vehicle>
    <vehicle id="240" depart="1488.0">
        <route edges="w_t t_n"/>
    </vehicle>
    <vehicle id="241" depart="1490.0">
        <route edges="s_t t_w"/>
    </vehicle>
    <vehicle id="242" depart="1494.0">
        <route edges="n_t t_s"/>
    </vehicle>
    <vehicle id="243" depart="1509.0">
        <route edges="n_t t_s"/>
    </vehicle>
    <vehicle id="244" depart="1514.0">
        <route edges="e_t t_n"/>
    </vehicle>
    <vehicle id="245" depart="1515.0">
        <route edges="n_t t_w"/>
    </vehicle>
    <vehicle id="246" depart="1522.0">
        <route edges="e_t t_w"/>
    </vehicle>
    <vehicle id="247" depart="1524.0">
        <route edges="e_t t_w"/>
    </vehicle>
    <vehicle id="248" depart="1537.0">
        <route edges="e_t t_s s_t t_e"/>
    </vehicle>
    <vehicle id="249" depart="1546.0">
        <route edges="e_t t_w"/>
    </vehicle>
    <vehicle id="250" depart="1549.0">
        <route edges="s_t t_w"/>
    </vehicle>
    <vehicle id="251" depart="1549.0">
        <route edges="n_t t_e"/>
    </vehicle>
    <vehicle id="252" depart="1552.0">
        <route edges="n_t t_e e_t t_n"/>
    </vehicle>
    <vehicle id="253" depart="1553.0">
        <route edges="w_t t_e"/>
    </vehicle>
    <vehicle id="254" depart="1553.0">
        <route edges="e_t t_w"/>
    </vehicle>
    <vehicle id="255" depart="1558.0">
        <route edges="e_t t_w"/>
    </vehicle>
    <vehicle id="256" depart="1559.0">
        <route edges="n_t t_s"/>
    </vehicle>
    <vehicle id="257" depart="1568.0">
        <route edges="s_t t_w"/>
    </vehicle>
    <vehicle id="258" depart="1571.0">
        <route edges="e_t t_w"/>
    </vehicle>
    <vehicle id="259" depart="1572.0">
        <route edges="e_t t_s"/>
    </vehicle>
    <vehicle id="260" depart="1572.0">
        <route edges="e_t t_w"/>
    </vehicle>
    <vehicle id="261" depart="1577.0">
        <route edges="e_t t_s s_t t_e"/>
    </vehicle>
    <vehicle id="262" depart="1581.0">
        <route edges="e_t t_n"/>
    </vehicle>
    <vehicle id="263" depart="1582.0">
        <route edges="n_t t_w"/>
    </vehicle>
    <vehicle id="264" depart="1586.0">
        <route edges="s_t t_n"/>
    </vehicle>
    <vehicle id="265" depart="1587.0">
        <route edges="w_t t_e"/>
    </vehicle>
    <vehicle id="266" depart="1592.0">
        <route edges="e_t t_w"/>
    </vehicle>
    <vehicle id="267" depart="1600.0">
        <route edges="w_t t_s"/>
    </vehicle>
    <vehicle id="268" depart="1611.0">
        <route edges="w_t t_e"/>
    </vehicle>
    <vehicle id="269" depart="1628.0">
        <route edges="w_t t_s"/>
    </vehicle>
    <vehicle id="270" depart="1629.0">
        <route edges="s_t t_w"/>
    </vehicle>
    <vehicle id="271" depart="1630.0">
        <route edges="e_t t_s s_t t_e"/>
    </vehicle>
    <vehicle id="272" depart="1630.0">
        <route edges="e_t t_n"/>
    </vehicle>
    <vehicle id="273" depart="1639.0">
        <route edges="s_t t_e e_t t_s"/>
    </vehicle>
    <vehicle id="274" depart="1645.0">
        <route edges="n_t t_s"/>
    </vehicle>
    <vehicle id="275" depart="1654.0">
        <route edges="w_t t_n n_t t_w"/>
    </vehicle>
    <vehicle id="276" depart="1655.0">
        <route edges="e_t t_s s_t t_e"/>
    </vehicle>
    <vehicle id="277" depart="1657.0">
        <route edges="e_t t_s s_t t_e"/>
    </vehicle>
    <vehicle id="278" depart="1657.0">
        <route edges="s_t t_e"/>
    </vehicle>
    <vehicle id="279" depart="1665.0">
        <route edges="s_t t_n"/>
    </vehicle>
    <vehicle id="280" depart="1670.0">
        <route edges="n_t t_s"/>
    </vehicle>
    <vehicle id="281" depart="1674.0">
        <route edges="w_t t_e"/>
    </vehicle>
    <vehicle id="282" depart="1680.0">
        <route edges="n_t t_w"/>
    </vehicle>
    <vehicle id="283" depart="1680.0">
        <route edges="e_t t_s s_t t_e"/>
    </vehicle>
    <vehicle id="284" depart="1685.0">
        <route edges="e_t t_w"/>
    </vehicle>
    <vehicle id="285" depart="1695.0">
        <route edges="s_t t_w"/>
    </vehicle>
    <vehicle id="286" depart="1700.0">
        <route edges="n_t t_e"/>
    </vehicle>
    <vehicle id="287" depart="1702.0">
        <route edges="n_t t_s"/>
    </vehicle>
    <vehicle id="288" depart="1703.0">
        <route edges="n_t t_e"/>
    </vehicle>
    <vehicle id="289" depart="1712.0">
        <route edges="n_t t_e e_t t_n"/>
    </vehicle>
    <vehicle id="290" depart="1714.0">
        <route edges="n_t t_e e_t t_n"/>
    </vehicle>
    <vehicle id="291" depart="1717.0">
        <route edges="e_t t_s s_t t_e"/>
    </vehicle>
    <vehicle id="292" depart="1717.0">
        <route edges="w_t t_s"/>
    </vehicle>
    <vehicle id="293" depart="1732.0">
        <route edges="n_t t_e"/>
    </vehicle>
    <vehicle id="294" depart="1733.0">
        <route edges="n_t t_s"/>
    </vehicle>
    <vehicle id="295" depart="1736.0">
        <route edges="w_t t_n"/>
    </vehicle>
    <vehicle id="296" depart="1746.0">
        <route edges="w_t t_s"/>
    </vehicle>
    <vehicle id="297" depart="1747.0">
        <route edges="e_t t_s"/>
    </vehicle>
    <vehicle id="298" depart="1759.0">
        <route edges="s_t t_e e_t t_s"/>
    </vehicle>
    <vehicle id="299" depart="1761.0">
        <route edges="s_t t_e"/>
    </vehicle>
    <vehicle id="300" depart="1781.0">
        <route edges="n_t t_w"/>
    </vehicle>
    <vehicle id="301" depart="1786.0">
        <route edges="e_t t_s s_t t_e"/>
    </vehicle>
    <vehicle id="302" depart="1790.0">
        <route edges="e_t t_n"/>
    </vehicle>
    <vehicle id="303" depart="1791.0">
        <route edges="n_t t_e e_t t_n"/>
    </vehicle>
    <vehicle id="304" depart="1792.0">
        <route edges="s_t t_e"/>
    </vehicle>
    <vehicle id="305" depart="1797.0">
        <route edges="n_t t_s"/>
    </vehicle>
    <vehicle id="306" depart="1806.0">
        <route edges="s_t t_w"/>
    </vehicle>
    <vehicle id="307" depart="1807.0">
        <route edges="w_t t_n"/>
    </vehicle>
    <vehicle id="308" depart="1817.0">
        <route edges="n_t t_s"/>
    </vehicle>
    <vehicle id="309" depart="1821.0">
        <route edges="s_t t_n"/>
    </vehicle>
    <vehicle id="310" depart="1824.0">
        <route edges="w_t t_e"/>
    </vehicle>
    <vehicle id="311" depart="1824.0">
        <route edges="n_t t_e"/>
    </vehicle>
    <vehicle id="312" depart="1825.0">
        <route edges="w_t t_s"/>
    </vehicle>
    <vehicle id="313" depart="1831.0">
        <route edges="w_t t_e"/>
    </vehicle>
    <vehicle id="314" depart="1842.0">
        <route edges="s_t t_e e_t t_s"/>
    </vehicle>
    <vehicle id="315" depart="1847.0">
        <route edges="e_t t_w"/>
    </vehicle>
    <vehicle id="316" depart="1849.0">
        <route edges="w_t t_e"/>
    </vehicle>
    <vehicle id="317" depart="1856.0">
        <route edges="w_t t_n n_t t_w"/>
    </vehicle>
    <vehicle id="318" depart="1869.0">
        <route edges="s_t t_e e_t t_s"/>
    </vehicle>
    <vehicle id="319" depart="1873.0">
        <route edges="n_t t_e"/>
    </vehicle>
    <vehicle id="320" depart="1876.0">
        <route edges="n_t t_w"/>
    </vehicle>
    <vehicle id="321" depart="1897.0">
        <route edges="e_t t_n"/>
    </vehicle>
    <vehicle id="322" depart="1900.0">
        <route edges="n_t t_s"/>
    </vehicle>
    <vehicle id="323" depart="1901.0">
        <route edges="w_t t_n n_t t_w"/>
    </vehicle>
    <vehicle id="324" depart="1907.0">
        <route edges="n_t t_e e_t t_n"/>
    </vehicle>