<?xml version="1.0" encoding="UTF-8"?>

<!-- generated on 2023-06-30 22:45:54.570210 by randomTrips.py UNKNOWN
<configuration>
    <net-file value="nets/2way-single-intersection/single-intersection.net.xml"/>
    <route-file value="training/routes/2x2_tr_ep17.rou.xml"/>
    <seed value="17"/>
    <validate value="True"/>
    <end value="500.0"/>
</configuration>
-->

<!-- generated on 2023-06-30 22:45:54 by Eclipse SUMO duarouter Version v1_17_0+1256-16eabe86c67
<configuration xmlns:xsi="http://www.w3.org/2001/XMLSchema-instance" xsi:noNamespaceSchemaLocation="http://sumo.dlr.de/xsd/duarouterConfiguration.xsd">

    <input>
        <net-file value="nets/2way-single-intersection/single-intersection.net.xml"/>
        <route-files value="trips.trips.xml"/>
    </input>

    <output>
        <output-file value="training/routes/2x2_tr_ep17.rou.xml"/>
        <alternatives-output value="NUL"/>
    </output>

    <time>
        <begin value="0"/>
        <end value="500.0"/>
    </time>

    <report>
        <no-warnings value="true"/>
        <ignore-errors value="true"/>
        <no-step-log value="true"/>
    </report>

</configuration>
-->

<routes xmlns:xsi="http://www.w3.org/2001/XMLSchema-instance" xsi:noNamespaceSchemaLocation="http://sumo.dlr.de/xsd/routes_file.xsd">
    <vehicle id="0" depart="75.0">
        <route edges="s_t t_w"/>
    </vehicle>
    <vehicle id="1" depart="103.0">
        <route edges="w_t t_n"/>
    </vehicle>
    <vehicle id="2" depart="139.0">
        <route edges="w_t t_s"/>
    </vehicle>
    <vehicle id="3" depart="142.0">
        <route edges="s_t t_e"/>
    </vehicle>
    <vehicle id="4" depart="158.0">
        <route edges="e_t t_n"/>
    </vehicle>
    <vehicle id="5" depart="195.0">
        <route edges="s_t t_n"/>
    </vehicle>
    <vehicle id="6" depart="216.0">
        <route edges="s_t t_n"/>
    </vehicle>
    <vehicle id="7" depart="232.0">
        <route edges="w_t t_n n_t t_w"/>
    </vehicle>
    <vehicle id="8" depart="234.0">
        <route edges="n_t t_w"/>
    </vehicle>
    <vehicle id="9" depart="252.0">
        <route edges="e_t t_w"/>
    </vehicle>
    <vehicle id="10" depart="265.0">
        <route edges="w_t t_e"/>
    </vehicle>
    <vehicle id="11" depart="273.0">
        <route edges="s_t t_e e_t t_s"/>
    </vehicle>
    <vehicle id="12" depart="291.0">
        <route edges="w_t t_e"/>
    </vehicle>
    <vehicle id="13" depart="301.0">
        <route edges="s_t t_w"/>
    </vehicle>
    <vehicle id="14" depart="316.0">
        <route edges="s_t t_n"/>
    </vehicle>
    <vehicle id="15" depart="326.0">
        <route edges="e_t t_w"/>
    </vehicle>
    <vehicle id="16" depart="327.0">
        <route edges="n_t t_w"/>
    </vehicle>
    <vehicle id="17" depart="333.0">
        <route edges="e_t t_w"/>
    </vehicle>
    <vehicle id="18" depart="341.0">
        <route edges="w_t t_n n_t t_w"/>
    </vehicle>
    <vehicle id="19" depart="344.0">
        <route edges="e_t t_n"/>
    </vehicle>
    <vehicle id="20" depart="351.0">
        <route edges="e_t t_w"/>
    </vehicle>
    <vehicle id="21" depart="358.0">
        <route edges="n_t t_w"/>
    </vehicle>
    <vehicle id="22" depart="364.0">
        <route edges="n_t t_w"/>
    </vehicle>
    <vehicle id="23" depart="366.0">
        <route edges="w_t t_e"/>
    </vehicle>
    <vehicle id="24" depart="370.0">
        <route edges="s_t t_w"/>
    </vehicle>
    <vehicle id="25" depart="397.0">
        <route edges="s_t t_n"/>
    </vehicle>
    <vehicle id="26" depart="401.0">
        <route edges="n_t t_w"/>
    </vehicle>
    <vehicle id="27" depart="402.0">
        <route edges="e_t t_s"/>
    </vehicle>
    <vehicle id="28" depart="414.0">
        <route edges="s_t t_e e_t t_s"/>
    </vehicle>
    <vehicle id="29" depart="419.0">
        <route edges="e_t t_s"/>
    </vehicle>
    <vehicle id="30" depart="430.0">
        <route edges="w_t t_n"/>
    </vehicle>
    <vehicle id="31" depart="449.0">
        <route edges="n_t t_w"/>
    </vehicle>
    <vehicle id="32" depart="454.0">
        <route edges="s_t t_n"/>
    </vehicle>
    <vehicle id="33" depart="461.0">
        <route edges="e_t t_w"/>
    </vehicle>
    <vehicle id="34" depart="464.0">
        <route edges="n_t t_e e_t t_n"/>
    </vehicle>
    <vehicle id="35" depart="472.0">
        <route edges="n_t t_s"/>
    </vehicle>
    <vehicle id="36" depart="474.0">
        <route edges="s_t t_n"/>
    </vehicle>
    <vehicle id="37" depart="501.0">
        <route edges="e_t t_w"/>
    </vehicle>
    <vehicle id="38" depart="506.0">
        <route edges="w_t t_e"/>
    </vehicle>
    <vehicle id="39" depart="507.0">
        <route edges="s_t t_e e_t t_s"/>
    </vehicle>
    <vehicle id="40" depart="508.0">
        <route edges="n_t t_s"/>
    </vehicle>
    <vehicle id="41" depart="514.0">
        <route edges="w_t t_s"/>
    </vehicle>
    <vehicle id="42" depart="528.0">
        <route edges="n_t t_e"/>
    </vehicle>
    <vehicle id="43" depart="546.0">
        <route edges="n_t t_e"/>
    </vehicle>
    <vehicle id="44" depart="551.0">
        <route edges="e_t t_s s_t t_e"/>
    </vehicle>
    <vehicle id="45" depart="554.0">
        <route edges="w_t t_s"/>
    </vehicle>
    <vehicle id="46" depart="565.0">
        <route edges="w_t t_n n_t t_w"/>
    </vehicle>
    <vehicle id="47" depart="566.0">
        <route edges="w_t t_e"/>
    </vehicle>
    <vehicle id="48" depart="570.0">
        <route edges="w_t t_e"/>
    </vehicle>
    <vehicle id="49" depart="585.0">
        <route edges="w_t t_n n_t t_w"/>
    </vehicle>
    <vehicle id="50" depart="585.0">
        <route edges="s_t t_n"/>
    </vehicle>
    <vehicle id="51" depart="586.0">
        <route edges="e_t t_s s_t t_e"/>
    </vehicle>
    <vehicle id="52" depart="588.0">
        <route edges="s_t t_e"/>
    </vehicle>
    <vehicle id="53" depart="589.0">
        <route edges="s_t t_n"/>
    </vehicle>
    <vehicle id="54" depart="599.0">
        <route edges="e_t t_n"/>
    </vehicle>
    <vehicle id="55" depart="607.0">
        <route edges="s_t t_n"/>
    </vehicle>
    <vehicle id="56" depart="609.0">
        <route edges="n_t t_e e_t t_n"/>
    </vehicle>
    <vehicle id="57" depart="612.0">
        <route edges="s_t t_e e_t t_s"/>
    </vehicle>
    <vehicle id="58" depart="616.0">
        <route edges="n_t t_w"/>
    </vehicle>
    <vehicle id="59" depart="617.0">
        <route edges="w_t t_e"/>
    </vehicle>
    <vehicle id="60" depart="629.0">
        <route edges="n_t t_e"/>
    </vehicle>
    <vehicle id="61" depart="637.0">
        <route edges="n_t t_e"/>
    </vehicle>
    <vehicle id="62" depart="663.0">
        <route edges="s_t t_e e_t t_s"/>
    </vehicle>
    <vehicle id="63" depart="667.0">
        <route edges="n_t t_w"/>
    </vehicle>
    <vehicle id="64" depart="667.0">
        <route edges="n_t t_s"/>
    </vehicle>
    <vehicle id="65" depart="670.0">
        <route edges="w_t t_s"/>
    </vehicle>
    <vehicle id="66" depart="680.0">
        <route edges="s_t t_n"/>
    </vehicle>
    <vehicle id="67" depart="683.0">
        <route edges="w_t t_n n_t t_w"/>
    </vehicle>
    <vehicle id="68" depart="684.0">
        <route edges="n_t t_e e_t t_n"/>
    </vehicle>
    <vehicle id="69" depart="689.0">
        <route edges="s_t t_e e_t t_s"/>
    </vehicle>
    <vehicle id="70" depart="699.0">
        <route edges="s_t t_e"/>
    </vehicle>
    <vehicle id="71" depart="709.0">
        <route edges="s_t t_e e_t t_s"/>
    </vehicle>
    <vehicle id="72" depart="713.0">
        <route edges="w_t t_n"/>
    </vehicle>
    <vehicle id="73" depart="717.0">
        <route edges="n_t t_s"/>
    </vehicle>
    <vehicle id="74" depart="718.0">
        <route edges="s_t t_n"/>
    </vehicle>
    <vehicle id="75" depart="719.0">
        <route edges="e_t t_n"/>
    </vehicle>
    <vehicle id="76" depart="721.0">
        <route edges="w_t t_n n_t t_w"/>
    </vehicle>
    <vehicle id="77" depart="727.0">
        <route edges="n_t t_w"/>
    </vehicle>
    <vehicle id="78" depart="729.0">
        <route edges="e_t t_n"/>
    </vehicle>
    <vehicle id="79" depart="729.0">
        <route edges="s_t t_e e_t t_s"/>
    </vehicle>
    <vehicle id="80" depart="734.0">
        <route edges="e_t t_n"/>
    </vehicle>
    <vehicle id="81" depart="739.0">
        <route edges="w_t t_s"/>
    </vehicle>
    <vehicle id="82" depart="751.0">
        <route edges="w_t t_e"/>
    </vehicle>
    <vehicle id="83" depart="756.0">
        <route edges="w_t t_n n_t t_w"/>
    </vehicle>
    <vehicle id="84" depart="771.0">
        <route edges="e_t t_s"/>
    </vehicle>
    <vehicle id="85" depart="773.0">
        <route edges="w_t t_e"/>
    </vehicle>
    <vehicle id="86" depart="778.0">
        <route edges="s_t t_w"/>
    </vehicle>
    <vehicle id="87" depart="789.0">
        <route edges="w_t t_n"/>
    </vehicle>
    <vehicle id="88" depart="790.0">
        <route edges="e_t t_s"/>
    </vehicle>
    <vehicle id="89" depart="797.0">
        <route edges="e_t t_s"/>
    </vehicle>
    <vehicle id="90" depart="803.0">
        <route edges="n_t t_e e_t t_n"/>
    </vehicle>
    <vehicle id="91" depart="815.0">
        <route edges="s_t t_w"/>
    </vehicle>
    <vehicle id="92" depart="822.0">
        <route edges="w_t t_n"/>
    </vehicle>
    <vehicle id="93" depart="825.0">
        <route edges="e_t t_w"/>
    </vehicle>
    <vehicle id="94" depart="826.0">
        <route edges="n_t t_w"/>
    </vehicle>
    <vehicle id="95" depart="826.0">
        <route edges="w_t t_e"/>
    </vehicle>
    <vehicle id="96" depart="827.0">
        <route edges="s_t t_n"/>
    </vehicle>
    <vehicle id="97" depart="830.0">
        <route edges="n_t t_e e_t t_n"/>
    </vehicle>
    <vehicle id="98" depart="831.0">
        <route edges="s_t t_e"/>
    </vehicle>
    <vehicle id="99" depart="839.0">
        <route edges="n_t t_e e_t t_n"/>
    </vehicle>
    <vehicle id="100" depart="856.0">
        <route edges="e_t t_s s_t t_e"/>
    </vehicle>
    <vehicle id="101" depart="857.0">
        <route edges="s_t t_n"/>
    </vehicle>
    <vehicle id="102" depart="862.0">
        <route edges="e_t t_n"/>
    </vehicle>
    <vehicle id="103" depart="864.0">
        <route edges="e_t t_w"/>
    </vehicle>
    <vehicle id="104" depart="869.0">
        <route edges="w_t t_e"/>
    </vehicle>
    <vehicle id="105" depart="873.0">
        <route edges="n_t t_e e_t t_n"/>
    </vehicle>
    <vehicle id="106" depart="875.0">
        <route edges="s_t t_n"/>
    </vehicle>
    <vehicle id="107" depart="878.0">
        <route edges="s_t t_w"/>
    </vehicle>
    <vehicle id="108" depart="885.0">
        <route edges="e_t t_s"/>
    </vehicle>
    <vehicle id="109" depart="888.0">
        <route edges="e_t t_s"/>
    </vehicle>
    <vehicle id="110" depart="908.0">
        <route edges="n_t t_w"/>
    </vehicle>
    <vehicle id="111" depart="916.0">
        <route edges="w_t t_n n_t t_w"/>
    </vehicle>
    <vehicle id="112" depart="924.0">
        <route edges="n_t t_s"/>
    </vehicle>
    <vehicle id="113" depart="932.0">
        <route edges="e_t t_s"/>
    </vehicle>
    <vehicle id="114" depart="936.0">
        <route edges="w_t t_n"/>
    </vehicle>
    <vehicle id="115" depart="937.0">
        <route edges="n_t t_w"/>
    </vehicle>
    <vehicle id="116" depart="937.0">
        <route edges="w_t t_n n_t t_w"/>
    </vehicle>
    <vehicle id="117" depart="944.0">
        <route edges="n_t t_e"/>
    </vehicle>
    <vehicle id="118" depart="948.0">
        <route edges="n_t t_e"/>
    </vehicle>
    <vehicle id="119" depart="951.0">
        <route edges="e_t t_s s_t t_e"/>
    </vehicle>
    <vehicle id="120" depart="953.0">
        <route edges="n_t t_e e_t t_n"/>
    </vehicle>
    <vehicle id="121" depart="957.0">
        <route edges="w_t t_n"/>
    </vehicle>
    <vehicle id="122" depart="969.0">
        <route edges="e_t t_w"/>
    </vehicle>
    <vehicle id="123" depart="971.0">
        <route edges="e_t t_n"/>
    </vehicle>
    <vehicle id="124" depart="973.0">
        <route edges="w_t t_n"/>
    </vehicle>
    <vehicle id="125" depart="980.0">
        <route edges="w_t t_s"/>
    </vehicle>
    <vehicle id="126" depart="985.0">
        <route edges="n_t t_w"/>
    </vehicle>
    <vehicle id="127" depart="989.0">
        <route edges="w_t t_s"/>
    </vehicle>
    <vehicle id="128" depart="991.0">
        <route edges="e_t t_s s_t t_e"/>
    </vehicle>
    <vehicle id="129" depart="994.0">
        <route edges="w_t t_n n_t t_w"/>
    </vehicle>
    <vehicle id="130" depart="995.0">
        <route edges="s_t t_w"/>
    </vehicle>
    <vehicle id="131" depart="1007.0">
        <route edges="w_t t_e"/>
    </vehicle>
    <vehicle id="132" depart="1011.0">
        <route edges="e_t t_w"/>
    </vehicle>
    <vehicle id="133" depart="1019.0">
        <route edges="w_t t_n"/>
    </vehicle>
    <vehicle id="134" depart="1019.0">
        <route edges="n_t t_e"/>
    </vehicle>
    <vehicle id="135" depart="1019.0">
        <route edges="n_t t_w"/>
    </vehicle>
    <vehicle id="136" depart="1023.0">
        <route edges="e_t t_n"/>
    </vehicle>
    <vehicle id="137" depart="1026.0">
        <route edges="e_t t_s"/>
    </vehicle>
    <vehicle id="138" depart="1035.0">
        <route edges="e_t t_s"/>
    </vehicle>
    <vehicle id="139" depart="1041.0">
        <route edges="n_t t_e e_t t_n"/>
    </vehicle>
    <vehicle id="140" depart="1048.0">
        <route edges="n_t t_e e_t t_n"/>
    </vehicle>
    <vehicle id="141" depart="1049.0">
        <route edges="w_t t_n n_t t_w"/>
    </vehicle>
    <vehicle id="142" depart="1050.0">
        <route edges="w_t t_e"/>
    </vehicle>
    <vehicle id="143" depart="1053.0">
        <route edges="e_t t_n"/>
    </vehicle>
    <vehicle id="144" depart="1055.0">
        <route edges="w_t t_n n_t t_w"/>
    </vehicle>
    <vehicle id="145" depart="1056.0">
        <route edges="e_t t_s"/>
    </vehicle>
    <vehicle id="146" depart="1059.0">
        <route edges="n_t t_e e_t t_n"/>
    </vehicle>
    <vehicle id="147" depart="1061.0">
        <route edges="e_t t_s"/>
    </vehicle>
    <vehicle id="148" depart="1062.0">
        <route edges="w_t t_n n_t t_w"/>
    </vehicle>
    <vehicle id="149" depart="1064.0">
        <route edges="n_t t_e e_t t_n"/>
    </vehicle>
    <vehicle id="150" depart="1064.0">
        <route edges="s_t t_e"/>
    </vehicle>
    <vehicle id="151" depart="1066.0">
        <route edges="w_t t_n n_t t_w"/>
    </vehicle>
    <vehicle id="152" depart="1069.0">
        <route edges="e_t t_n"/>
    </vehicle>
    <vehicle id="153" depart="1073.0">
        <route edges="n_t t_w"/>
    </vehicle>
    <vehicle id="154" depart="1075.0">
        <route edges="s_t t_e"/>
    </vehicle>
    <vehicle id="155" depart="1077.0">
        <route edges="w_t t_n n_t t_w"/>
    </vehicle>
    <vehicle id="156" depart="1077.0">
        <route edges="w_t t_n"/>
    </vehicle>
    <vehicle id="157" depart="1078.0">
        <route edges="n_t t_e e_t t_n"/>
    </vehicle>
    <vehicle id="158" depart="1079.0">
        <route edges="w_t t_n"/>
    </vehicle>
    <vehicle id="159" depart="1080.0">
        <route edges="w_t t_e"/>
    </vehicle>
    <vehicle id="160" depart="1081.0">
        <route edges="e_t t_n"/>
    </vehicle>
    <vehicle id="161" depart="1084.0">
        <route edges="e_t t_n"/>
    </vehicle>
    <vehicle id="162" depart="1088.0">
        <route edges="e_t t_s s_t t_e"/>
    </vehicle>
    <vehicle id="163" depart="1090.0">
        <route edges="n_t t_e"/>
    </vehicle>
    <vehicle id="164" depart="1092.0">
        <route edges="n_t t_s"/>
    </vehicle>
    <vehicle id="165" depart="1093.0">
        <route edges="n_t t_e e_t t_n"/>
    </vehicle>
    <vehicle id="166" depart="1098.0">
        <route edges="n_t t_e e_t t_n"/>
    </vehicle>
    <vehicle id="167" depart="1106.0">
        <route edges="s_t t_w"/>
    </vehicle>
    <vehicle id="168" depart="1107.0">
        <route edges="e_t t_s"/>
    </vehicle>
    <vehicle id="169" depart="1107.0">
        <route edges="s_t t_w"/>
    </vehicle>
    <vehicle id="170" depart="1121.0">
        <route edges="s_t t_n"/>
    </vehicle>
    <vehicle id="171" depart="1123.0">
        <route edges="s_t t_w"/>
    </vehicle>
    <vehicle id="172" depart="1123.0">
        <route edges="w_t t_n n_t t_w"/>
    </vehicle>
    <vehicle id="173" depart="1126.0">
        <route edges="e_t t_n"/>
    </vehicle>
    <vehicle id="174" depart="1129.0">
        <route edges="n_t t_e e_t t_n"/>
    </vehicle>
    <vehicle id="175" depart="1137.0">
        <route edges="w_t t_n"/>
    </vehicle>
    <vehicle id="176" depart="1138.0">
        <route edges="w_t t_e"/>
    </vehicle>
    <vehicle id="177" depart="1153.0">
        <route edges="w_t t_e"/>
    </vehicle>
    <vehicle id="178" depart="1155.0">
        <route edges="s_t t_e"/>
    </vehicle>
    <vehicle id="179" depart="1155.0">
        <route edges="n_t t_s"/>
    </vehicle>
    <vehicle id="180" depart="1156.0">
        <route edges="w_t t_e"/>
    </vehicle>
    <vehicle id="181" depart="1162.0">
        <route edges="n_t t_e"/>
    </vehicle>
    <vehicle id="182" depart="1164.0">
        <route edges="s_t t_e"/>
    </vehicle>
    <vehicle id="183" depart="1165.0">
        <route edges="e_t t_w"/>
    </vehicle>
    <vehicle id="184" depart="1167.0">
        <route edges="e_t t_w"/>
    </vehicle>
    <vehicle id="185" depart="1172.0">
        <route edges="n_t t_w"/>
    </vehicle>
    <vehicle id="186" depart="1173.0">
        <route edges="e_t t_s s_t t_e"/>
    </vehicle>
    <vehicle id="187" depart="1178.0">
        <route edges="n_t t_e e_t t_n"/>
    </vehicle>
    <vehicle id="188" depart="1181.0">
        <route edges="s_t t_n"/>
    </vehicle>
    <vehicle id="189" depart="1183.0">
        <route edges="n_t t_e"/>
    </vehicle>
    <vehicle id="190" depart="1183.0">
        <route edges="e_t t_s s_t t_e"/>
    </vehicle>
    <vehicle id="191" depart="1184.0">
        <route edges="n_t t_w"/>
    </vehicle>
    <vehicle id="192" depart="1184.0">
        <route edges="s_t t_n"/>
    </vehicle>
    <vehicle id="193" depart="1189.0">
        <route edges="n_t t_w"/>
    </vehicle>
    <vehicle id="194" depart="1190.0">
        <route edges="w_t t_e"/>
    </vehicle>
    <vehicle id="195" depart="1192.0">
        <route edges="s_t t_n"/>
    </vehicle>
    <vehicle id="196" depart="1194.0">
        <route edges="w_t t_s"/>
    </vehicle>
    <vehicle id="197" depart="1206.0">
        <route edges="s_t t_e e_t t_s"/>
    </vehicle>
    <vehicle id="198" depart="1211.0">
        <route edges="w_t t_e"/>
    </vehicle>
    <vehicle id="199" depart="1212.0">
        <route edges="n_t t_e"/>
    </vehicle>
    <vehicle id="200" depart="1218.0">
        <route edges="e_t t_w"/>
    </vehicle>
    <vehicle id="201" depart="1237.0">
        <route edges="s_t t_e"/>
    </vehicle>
    <vehicle id="202" depart="1247.0">
        <route edges="n_t t_e e_t t_n"/>
    </vehicle>
    <vehicle id="203" depart="1263.0">
        <route edges="e_t t_w"/>
    </vehicle>
    <vehicle id="204" depart="1270.0">
        <route edges="n_t t_e"/>
    </vehicle>
    <vehicle id="205" depart="1271.0">
        <route edges="s_t t_n"/>
    </vehicle>
    <vehicle id="206" depart="1272.0">
        <route edges="w_t t_n"/>
    </vehicle>
    <vehicle id="207" depart="1275.0">
        <route edges="e_t t_s"/>
    </vehicle>
    <vehicle id="208" depart="1278.0">
        <route edges="n_t t_e"/>
    </vehicle>
    <vehicle id="209" depart="1280.0">
        <route edges="s_t t_w"/>
    </vehicle>
    <vehicle id="210" depart="1283.0">
        <route edges="w_t t_s"/>
    </vehicle>
    <vehicle id="211" depart="1287.0">
        <route edges="n_t t_w"/>
    </vehicle>
    <vehicle id="212" depart="1296.0">
        <route edges="e_t t_s s_t t_e"/>
    </vehicle>
    <vehicle id="213" depart="1299.0">
        <route edges="e_t t_s"/>
    </vehicle>
    <vehicle id="214" depart="1300.0">
        <route edges="e_t t_n"/>
    </vehicle>
    <vehicle id="215" depart="1302.0">
        <route edges="w_t t_s"/>
    </vehicle>
    <vehicle id="216" depart="1302.0">
        <route edges="e_t t_s s_t t_e"/>
    </vehicle>
    <vehicle id="217" depart="1304.0">
        <route edges="e_t t_s s_t t_e"/>
    </vehicle>
    <vehicle id="218" depart="1307.0">
        <route edges="n_t t_s"/>
    </vehicle>
    <vehicle id="219" depart="1307.0">
        <route edges="w_t t_n"/>
    </vehicle>
    <vehicle id="220" depart="1307.0">
        <route edges="e_t t_s"/>
    </vehicle>
    <vehicle id="221" depart="1309.0">
        <route edges="w_t t_e"/>
    </vehicle>
    <vehicle id="222" depart="1309.0">
        <route edges="s_t t_w"/>
    </vehicle>
    <vehicle id="223" depart="1325.0">
        <route edges="n_t t_s"/>
    </vehicle>
    <vehicle id="224" depart="1325.0">
        <route edges="w_t t_s"/>
    </vehicle>
    <vehicle id="225" depart="1332.0">
        <route edges="e_t t_w"/>
    </vehicle>
    <vehicle id="226" depart="1338.0">
        <route edges="s_t t_e e_t t_s"/>
    </vehicle>
    <vehicle id="227" depart="1340.0">
        <route edges="s_t t_w"/>
    </vehicle>
    <vehicle id="228" depart="1352.0">
        <route edges="s_t t_w"/>
    </vehicle>
    <vehicle id="229" depart="1354.0">
        <route edges="e_t t_s s_t t_e"/>
    </vehicle>
    <vehicle id="230" depart="1354.0">
        <route edges="e_t t_s"/>
    </vehicle>
    <vehicle id="231" depart="1356.0">
        <route edges="s_t t_w"/>
    </vehicle>
    <vehicle id="232" depart="1358.0">
        <route edges="e_t t_s s_t t_e"/>
    </vehicle>
    <vehicle id="233" depart="1358.0">
        <route edges="n_t t_s"/>
    </vehicle>
    <vehicle id="234" depart="1358.0">
        <route edges="n_t t_e e_t t_n"/>
    </vehicle>
    <vehicle id="235" depart="1362.0">
        <route edges="e_t t_s"/>
    </vehicle>
    <vehicle id="236" depart="1366.0">
        <route edges="s_t t_w"/>
    </vehicle>
    <vehicle id="237" depart="1368.0">
        <route edges="n_t t_e e_t t_n"/>
    </vehicle>
    <vehicle id="238" depart="1369.0">
        <route edges="w_t t_s"/>
    </vehicle>
    <vehicle id="239" depart="1369.0">
        <route edges="n_t t_s"/>
    </vehicle>
    <vehicle id="240" depart="1377.0">
        <route edges="n_t t_e"/>
    </vehicle>
    <vehicle id="241" depart="1379.0">
        <route edges="e_t t_n"/>
    </vehicle>
    <vehicle id="242" depart="1381.0">
        <route edges="n_t t_e e_t t_n"/>
    </vehicle>
    <vehicle id="243" depart="1381.0">
        <route edges="s_t t_n"/>
    </vehicle>
    <vehicle id="244" depart="1386.0">
        <route edges="n_t t_s"/>
    </vehicle>
    <vehicle id="245" depart="1388.0">
        <route edges="e_t t_w"/>
    </vehicle>
    <vehicle id="246" depart="1391.0">
        <route edges="n_t t_e"/>
    </vehicle>
    <vehicle id="247" depart="1393.0">
        <route edges="s_t t_e"/>
    </vehicle>
    <vehicle id="248" depart="1394.0">
        <route edges="e_t t_s s_t t_e"/>
    </vehicle>
    <vehicle id="249" depart="1398.0">
        <route edges="e_t t_n"/>
    </vehicle>
    <vehicle id="250" depart="1399.0">
        <route edges="n_t t_e"/>
    </vehicle>
    <vehicle id="251" depart="1399.0">
        <route edges="e_t t_w"/>
    </vehicle>
    <vehicle id="252" depart="1408.0">
        <route edges="s_t t_e e_t t_s"/>
    </vehicle>
    <vehicle id="253" depart="1409.0">
        <route edges="e_t t_w"/>
    </vehicle>
    <vehicle id="254" depart="1411.0">
        <route edges="e_t t_w"/>
    </vehicle>
    <vehicle id="255" depart="1413.0">
        <route edges="s_t t_n"/>
    </vehicle>
    <vehicle id="256" depart="1419.0">
        <route edges="n_t t_s"/>
    </vehicle>
    <vehicle id="257" depart="1420.0">
        <route edges="s_t t_w"/>
    </vehicle>
    <vehicle id="258" depart="1426.0">
        <route edges="e_t t_s s_t t_e"/>
    </vehicle>
    <vehicle id="259" depart="1427.0">
        <route edges="s_t t_n"/>
    </vehicle>
    <vehicle id="260" depart="1435.0">
        <route edges="s_t t_n"/>
    </vehicle>
    <vehicle id="261" depart="1438.0">
        <route edges="e_t t_w"/>
    </vehicle>
    <vehicle id="262" depart="1453.0">
        <route edges="e_t t_n"/>
    </vehicle>
    <vehicle id="263" depart="1454.0">
        <route edges="s_t t_w"/>
    </vehicle>
    <vehicle id="264" depart="1459.0">
        <route edges="w_t t_n n_t t_w"/>
    </vehicle>
    <vehicle id="265" depart="1471.0">
        <route edges="n_t t_e"/>
    </vehicle>
    <vehicle id="266" depart="1493.0">
        <route edges="n_t t_w"/>
    </vehicle>
    <vehicle id="267" depart="1506.0">
        <route edges="s_t t_e e_t t_s"/>
    </vehicle>
    <vehicle id="268" depart="1517.0">
        <route edges="s_t t_e"/>
    </vehicle>
    <vehicle id="269" depart="1518.0">
        <route edges="s_t t_n"/>
    </vehicle>
    <vehicle id="270" depart="1524.0">
        <route edges="w_t t_n"/>
    </vehicle>
    <vehicle id="271" depart="1528.0">
        <route edges="s_t t_e e_t t_s"/>
    </vehicle>
    <vehicle id="272" depart="1535.0">
        <route edges="s_t t_w"/>
    </vehicle>
    <vehicle id="273" depart="1539.0">
        <route edges="s_t t_e"/>
    </vehicle>
    <vehicle id="274" depart="1540.0">
        <route edges="w_t t_e"/>
    </vehicle>
    <vehicle id="275" depart="1542.0">
        <route edges="s_t t_n"/>
    </vehicle>
    <vehicle id="276" depart="1565.0">
        <route edges="e_t t_n"/>
    </vehicle>
    <vehicle id="277" depart="1566.0">
        <route edges="e_t t_s s_t t_e"/>
    </vehicle>
    <vehicle id="278" depart="1571.0">
        <route edges="w_t t_n n_t t_w"/>
    </vehicle>
    <vehicle id="279" depart="1577.0">
        <route edges="n_t t_e e_t t_n"/>
    </vehicle>
    <vehicle id="280" depart="1580.0">
        <route edges="s_t t_n"/>
    </vehicle>
    <vehicle id="281" depart="1581.0">
        <route edges="e_t t_n"/>
    </vehicle>
    <vehicle id="282" depart="1593.0">
        <route edges="w_t t_n n_t t_w"/>
    </vehicle>
    <vehicle id="283" depart="1593.0">
        <route edges="s_t t_w"/>
    </vehicle>
    <vehicle id="284" depart="1599.0">
        <route edges="n_t t_w"/>
    </vehicle>
    <vehicle id="285" depart="1602.0">
        <route edges="w_t t_n n_t t_w"/>
    </vehicle>
    <vehicle id="286" depart="1611.0">
        <route edges="e_t t_s"/>
    </vehicle>
    <vehicle id="287" depart="1614.0">
        <route edges="e_t t_s"/>
    </vehicle>
    <vehicle id="288" depart="1625.0">
        <route edges="n_t t_s"/>
    </vehicle>
    <vehicle id="289" depart="1626.0">
        <route edges="s_t t_n"/>
    </vehicle>
    <vehicle id="290" depart="1627.0">
        <route edges="e_t t_n"/>
    </vehicle>
    <vehicle id="291" depart="1627.0">
        <route edges="w_t t_n"/>
    </vehicle>
    <vehicle id="292" depart="1631.0">
        <route edges="w_t t_n n_t t_w"/>
    </vehicle>
    <vehicle id="293" depart="1635.0">
        <route edges="n_t t_e e_t t_n"/>
    </vehicle>
    <vehicle id="294" depart="1636.0">
        <route edges="w_t t_e"/>
    </vehicle>
    <vehicle id="295" depart="1646.0">
        <route edges="w_t t_n"/>
    </vehicle>
    <vehicle id="296" depart="1649.0">
        <route edges="s_t t_e"/>
    </vehicle>
    <vehicle id="297" depart="1650.0">
        <route edges="s_t t_e"/>
    </vehicle>
    <vehicle id="298" depart="1653.0">
        <route edges="n_t t_s"/>
    </vehicle>
    <vehicle id="299" depart="1655.0">
        <route edges="s_t t_n"/>
    </vehicle>
    <vehicle id="300" depart="1658.0">
        <route edges="n_t t_e e_t t_n"/>
    </vehicle>
    <vehicle id="301" depart="1665.0">
        <route edges="n_t t_e"/>
    </vehicle>
    <vehicle id="302" depart="1665.0">
        <route edges="e_t t_n"/>
    </vehicle>
    <vehicle id="303" depart="1677.0">
        <route edges="w_t t_n n_t t_w"/>
    </vehicle>
    <vehicle id="304" depart="1678.0">
        <route edges="n_t t_w"/>
    </vehicle>
    <vehicle id="305" depart="1678.0">
        <route edges="n_t t_w"/>
    </vehicle>
    <vehicle id="306" depart="1680.0">
        <route edges="w_t t_n n_t t_w"/>
    </vehicle>
    <vehicle id="307" depart="1691.0">
        <route edges="w_t t_s"/>
    </vehicle>
    <vehicle id="308" depart="1692.0">
        <route edges="w_t t_n"/>
    </vehicle>
    <vehicle id="309" depart="1694.0">
        <route edges="s_t t_e e_t t_s"/>
    </vehicle>
    <vehicle id="310" depart="1700.0">
        <route edges="s_t t_e"/>
    </vehicle>
    <vehicle id="311" depart="1707.0">
        <route edges="n_t t_s"/>
    </vehicle>
    <vehicle id="312" depart="1711.0">
        <route edges="n_t t_s"/>
    </vehicle>
    <vehicle id="313" depart="1721.0">
        <route edges="s_t t_e e_t t_s"/>
    </vehicle>
    <vehicle id="314" depart="1721.0">
        <route edges="e_t t_n"/>
    </vehicle>
    <vehicle id="315" depart="1722.0">
        <route edges="w_t t_n"/>
    </vehicle>
    <vehicle id="316" depart="1723.0">
        <route edges="e_t t_w"/>
    </vehicle>
    <vehicle id="317" depart="1725.0">
        <route edges="n_t t_e"/>
    </vehicle>
    <vehicle id="318" depart="1725.0">
        <route edges="s_t t_w"/>
    </vehicle>
    <vehicle id="319" depart="1744.0">
        <route edges="s_t t_e"/>
    </vehicle>
    <vehicle id="320" depart="1747.0">
        <route edges="e_t t_n"/>
    </vehicle>
    <vehicle id="321" depart="1750.0">
        <route edges="n_t t_w"/>
    </vehicle>
    <vehicle id="322" depart="1752.0">
        <route edges="w_t t_n n_t t_w"/>
    </vehicle>
    <vehicle id="323" depart="1754.0">
        <route edges="w_t t_n"/>
    </vehicle>
    <vehicle id="324" depart="1757.0">
        <route edges="s_t t_e e_t t_s"/>
    </vehicle>