<?xml version="1.0" encoding="UTF-8"?>

<!-- generated on 2023-06-30 22:44:41.889077 by randomTrips.py UNKNOWN
<configuration>
    <net-file value="nets/2way-single-intersection/single-intersection.net.xml"/>
    <route-file value="training/routes/2x2_tr_ep13.rou.xml"/>
    <seed value="13"/>
    <validate value="True"/>
    <end value="500.0"/>
</configuration>
-->

<!-- generated on 2023-06-30 22:44:41 by Eclipse SUMO duarouter Version v1_17_0+1256-16eabe86c67
<configuration xmlns:xsi="http://www.w3.org/2001/XMLSchema-instance" xsi:noNamespaceSchemaLocation="http://sumo.dlr.de/xsd/duarouterConfiguration.xsd">

    <input>
        <net-file value="nets/2way-single-intersection/single-intersection.net.xml"/>
        <route-files value="trips.trips.xml"/>
    </input>

    <output>
        <output-file value="training/routes/2x2_tr_ep13.rou.xml"/>
        <alternatives-output value="NUL"/>
    </output>

    <time>
        <begin value="0"/>
        <end value="500.0"/>
    </time>

    <report>
        <no-warnings value="true"/>
        <ignore-errors value="true"/>
        <no-step-log value="true"/>
    </report>

</configuration>
-->

<routes xmlns:xsi="http://www.w3.org/2001/XMLSchema-instance" xsi:noNamespaceSchemaLocation="http://sumo.dlr.de/xsd/routes_file.xsd">
    <vehicle id="0" depart="94.0">
        <route edges="n_t t_s"/>
    </vehicle>
    <vehicle id="1" depart="95.0">
        <route edges="s_t t_w"/>
    </vehicle>
    <vehicle id="2" depart="160.0">
        <route edges="e_t t_s s_t t_e"/>
    </vehicle>
    <vehicle id="3" depart="175.0">
        <route edges="e_t t_s s_t t_e"/>
    </vehicle>
    <vehicle id="4" depart="185.0">
        <route edges="s_t t_e"/>
    </vehicle>
    <vehicle id="5" depart="186.0">
        <route edges="s_t t_e"/>
    </vehicle>
    <vehicle id="6" depart="197.0">
        <route edges="n_t t_e e_t t_n"/>
    </vehicle>
    <vehicle id="7" depart="250.0">
        <route edges="w_t t_s"/>
    </vehicle>
    <vehicle id="8" depart="255.0">
        <route edges="e_t t_n"/>
    </vehicle>
    <vehicle id="9" depart="260.0">
        <route edges="e_t t_w"/>
    </vehicle>
    <vehicle id="10" depart="261.0">
        <route edges="w_t t_n n_t t_w"/>
    </vehicle>
    <vehicle id="11" depart="269.0">
        <route edges="w_t t_s"/>
    </vehicle>
    <vehicle id="12" depart="276.0">
        <route edges="w_t t_n n_t t_w"/>
    </vehicle>
    <vehicle id="13" depart="284.0">
        <route edges="n_t t_w"/>
    </vehicle>
    <vehicle id="14" depart="288.0">
        <route edges="n_t t_w"/>
    </vehicle>
    <vehicle id="15" depart="309.0">
        <route edges="s_t t_n"/>
    </vehicle>
    <vehicle id="16" depart="312.0">
        <route edges="n_t t_e e_t t_n"/>
    </vehicle>
    <vehicle id="17" depart="315.0">
        <route edges="n_t t_e"/>
    </vehicle>
    <vehicle id="18" depart="328.0">
        <route edges="w_t t_n n_t t_w"/>
    </vehicle>
    <vehicle id="19" depart="343.0">
        <route edges="w_t t_s"/>
    </vehicle>
    <vehicle id="20" depart="350.0">
        <route edges="s_t t_e e_t t_s"/>
    </vehicle>
    <vehicle id="21" depart="351.0">
        <route edges="e_t t_s"/>
    </vehicle>
    <vehicle id="22" depart="356.0">
        <route edges="n_t t_e"/>
    </vehicle>
    <vehicle id="23" depart="376.0">
        <route edges="e_t t_s"/>
    </vehicle>
    <vehicle id="24" depart="402.0">
        <route edges="n_t t_e e_t t_n"/>
    </vehicle>
    <vehicle id="25" depart="406.0">
        <route edges="s_t t_n"/>
    </vehicle>
    <vehicle id="26" depart="406.0">
        <route edges="e_t t_n"/>
    </vehicle>
    <vehicle id="27" depart="431.0">
        <route edges="e_t t_s s_t t_e"/>
    </vehicle>
    <vehicle id="28" depart="436.0">
        <route edges="e_t t_n"/>
    </vehicle>
    <vehicle id="29" depart="437.0">
        <route edges="e_t t_s"/>
    </vehicle>
    <vehicle id="30" depart="438.0">
        <route edges="w_t t_n"/>
    </vehicle>
    <vehicle id="31" depart="439.0">
        <route edges="s_t t_w"/>
    </vehicle>
    <vehicle id="32" depart="448.0">
        <route edges="e_t t_s s_t t_e"/>
    </vehicle>
    <vehicle id="33" depart="451.0">
        <route edges="w_t t_n n_t t_w"/>
    </vehicle>
    <vehicle id="34" depart="455.0">
        <route edges="s_t t_e"/>
    </vehicle>
    <vehicle id="35" depart="456.0">
        <route edges="n_t t_w"/>
    </vehicle>
    <vehicle id="36" depart="460.0">
        <route edges="w_t t_n n_t t_w"/>
    </vehicle>
    <vehicle id="37" depart="491.0">
        <route edges="e_t t_w"/>
    </vehicle>
    <vehicle id="38" depart="493.0">
        <route edges="n_t t_s"/>
    </vehicle>
    <vehicle id="39" depart="500.0">
        <route edges="e_t t_w"/>
    </vehicle>
    <vehicle id="40" depart="507.0">
        <route edges="s_t t_e e_t t_s"/>
    </vehicle>
    <vehicle id="41" depart="510.0">
        <route edges="e_t t_s"/>
    </vehicle>
    <vehicle id="42" depart="516.0">
        <route edges="s_t t_e e_t t_s"/>
    </vehicle>
    <vehicle id="43" depart="519.0">
        <route edges="n_t t_s"/>
    </vehicle>
    <vehicle id="44" depart="531.0">
        <route edges="n_t t_e e_t t_n"/>
    </vehicle>
    <vehicle id="45" depart="539.0">
        <route edges="e_t t_s"/>
    </vehicle>
    <vehicle id="46" depart="539.0">
        <route edges="e_t t_s s_t t_e"/>
    </vehicle>
    <vehicle id="47" depart="549.0">
        <route edges="e_t t_s"/>
    </vehicle>
    <vehicle id="48" depart="553.0">
        <route edges="s_t t_e e_t t_s"/>
    </vehicle>
    <vehicle id="49" depart="555.0">
        <route edges="e_t t_n"/>
    </vehicle>
    <vehicle id="50" depart="565.0">
        <route edges="n_t t_e"/>
    </vehicle>
    <vehicle id="51" depart="567.0">
        <route edges="e_t t_w"/>
    </vehicle>
    <vehicle id="52" depart="568.0">
        <route edges="e_t t_n"/>
    </vehicle>
    <vehicle id="53" depart="573.0">
        <route edges="n_t t_s"/>
    </vehicle>
    <vehicle id="54" depart="580.0">
        <route edges="e_t t_n"/>
    </vehicle>
    <vehicle id="55" depart="584.0">
        <route edges="n_t t_w"/>
    </vehicle>
    <vehicle id="56" depart="585.0">
        <route edges="e_t t_n"/>
    </vehicle>
    <vehicle id="57" depart="587.0">
        <route edges="n_t t_w"/>
    </vehicle>
    <vehicle id="58" depart="597.0">
        <route edges="s_t t_n"/>
    </vehicle>
    <vehicle id="59" depart="600.0">
        <route edges="s_t t_n"/>
    </vehicle>
    <vehicle id="60" depart="604.0">
        <route edges="e_t t_s"/>
    </vehicle>
    <vehicle id="61" depart="611.0">
        <route edges="w_t t_s"/>
    </vehicle>
    <vehicle id="62" depart="624.0">
        <route edges="n_t t_s"/>
    </vehicle>
    <vehicle id="63" depart="626.0">
        <route edges="w_t t_n"/>
    </vehicle>
    <vehicle id="64" depart="629.0">
        <route edges="s_t t_n"/>
    </vehicle>
    <vehicle id="65" depart="639.0">
        <route edges="e_t t_n"/>
    </vehicle>
    <vehicle id="66" depart="642.0">
        <route edges="e_t t_n"/>
    </vehicle>
    <vehicle id="67" depart="645.0">
        <route edges="e_t t_n"/>
    </vehicle>
    <vehicle id="68" depart="659.0">
        <route edges="e_t t_w"/>
    </vehicle>
    <vehicle id="69" depart="672.0">
        <route edges="s_t t_e"/>
    </vehicle>
    <vehicle id="70" depart="676.0">
        <route edges="w_t t_e"/>
    </vehicle>
    <vehicle id="71" depart="677.0">
        <route edges="n_t t_s"/>
    </vehicle>
    <vehicle id="72" depart="679.0">
        <route edges="n_t t_e e_t t_n"/>
    </vehicle>
    <vehicle id="73" depart="679.0">
        <route edges="n_t t_e"/>
    </vehicle>
    <vehicle id="74" depart="686.0">
        <route edges="w_t t_e"/>
    </vehicle>
    <vehicle id="75" depart="687.0">
        <route edges="w_t t_e"/>
    </vehicle>
    <vehicle id="76" depart="690.0">
        <route edges="n_t t_e e_t t_n"/>
    </vehicle>
    <vehicle id="77" depart="690.0">
        <route edges="e_t t_s s_t t_e"/>
    </vehicle>
    <vehicle id="78" depart="692.0">
        <route edges="n_t t_e e_t t_n"/>
    </vehicle>
    <vehicle id="79" depart="710.0">
        <route edges="w_t t_n n_t t_w"/>
    </vehicle>
    <vehicle id="80" depart="718.0">
        <route edges="e_t t_s"/>
    </vehicle>
    <vehicle id="81" depart="719.0">
        <route edges="e_t t_w"/>
    </vehicle>
    <vehicle id="82" depart="725.0">
        <route edges="n_t t_w"/>
    </vehicle>
    <vehicle id="83" depart="726.0">
        <route edges="s_t t_e"/>
    </vehicle>
    <vehicle id="84" depart="727.0">
        <route edges="e_t t_s s_t t_e"/>
    </vehicle>
    <vehicle id="85" depart="730.0">
        <route edges="w_t t_e"/>
    </vehicle>
    <vehicle id="86" depart="730.0">
        <route edges="n_t t_e e_t t_n"/>
    </vehicle>
    <vehicle id="87" depart="732.0">
        <route edges="n_t t_w"/>
    </vehicle>
    <vehicle id="88" depart="734.0">
        <route edges="e_t t_s"/>
    </vehicle>
    <vehicle id="89" depart="737.0">
        <route edges="s_t t_w"/>
    </vehicle>
    <vehicle id="90" depart="738.0">
        <route edges="s_t t_w"/>
    </vehicle>
    <vehicle id="91" depart="738.0">
        <route edges="n_t t_s"/>
    </vehicle>
    <vehicle id="92" depart="750.0">
        <route edges="s_t t_w"/>
    </vehicle>
    <vehicle id="93" depart="750.0">
        <route edges="w_t t_e"/>
    </vehicle>
    <vehicle id="94" depart="757.0">
        <route edges="e_t t_s"/>
    </vehicle>
    <vehicle id="95" depart="760.0">
        <route edges="w_t t_s"/>
    </vehicle>
    <vehicle id="96" depart="764.0">
        <route edges="n_t t_w"/>
    </vehicle>
    <vehicle id="97" depart="765.0">
        <route edges="n_t t_e"/>
    </vehicle>
    <vehicle id="98" depart="772.0">
        <route edges="e_t t_s s_t t_e"/>
    </vehicle>
    <vehicle id="99" depart="778.0">
        <route edges="s_t t_e"/>
    </vehicle>
    <vehicle id="100" depart="784.0">
        <route edges="s_t t_w"/>
    </vehicle>
    <vehicle id="101" depart="788.0">
        <route edges="w_t t_n n_t t_w"/>
    </vehicle>
    <vehicle id="102" depart="793.0">
        <route edges="n_t t_s"/>
    </vehicle>
    <vehicle id="103" depart="796.0">
        <route edges="w_t t_s"/>
    </vehicle>
    <vehicle id="104" depart="796.0">
        <route edges="n_t t_w"/>
    </vehicle>
    <vehicle id="105" depart="798.0">
        <route edges="e_t t_n"/>
    </vehicle>
    <vehicle id="106" depart="804.0">
        <route edges="w_t t_n"/>
    </vehicle>
    <vehicle id="107" depart="806.0">
        <route edges="n_t t_w"/>
    </vehicle>
    <vehicle id="108" depart="809.0">
        <route edges="n_t t_e"/>
    </vehicle>
    <vehicle id="109" depart="810.0">
        <route edges="e_t t_n"/>
    </vehicle>
    <vehicle id="110" depart="817.0">
        <route edges="n_t t_w"/>
    </vehicle>
    <vehicle id="111" depart="818.0">
        <route edges="e_t t_w"/>
    </vehicle>
    <vehicle id="112" depart="818.0">
        <route edges="w_t t_n"/>
    </vehicle>
    <vehicle id="113" depart="831.0">
        <route edges="w_t t_n n_t t_w"/>
    </vehicle>
    <vehicle id="114" depart="843.0">
        <route edges="n_t t_e e_t t_n"/>
    </vehicle>
    <vehicle id="115" depart="849.0">
        <route edges="n_t t_w"/>
    </vehicle>
    <vehicle id="116" depart="859.0">
        <route edges="s_t t_e"/>
    </vehicle>
    <vehicle id="117" depart="859.0">
        <route edges="n_t t_e e_t t_n"/>
    </vehicle>
    <vehicle id="118" depart="861.0">
        <route edges="e_t t_s"/>
    </vehicle>
    <vehicle id="119" depart="890.0">
        <route edges="e_t t_w"/>
    </vehicle>
    <vehicle id="120" depart="894.0">
        <route edges="e_t t_s s_t t_e"/>
    </vehicle>
    <vehicle id="121" depart="895.0">
        <route edges="s_t t_n"/>
    </vehicle>
    <vehicle id="122" depart="899.0">
        <route edges="w_t t_n"/>
    </vehicle>
    <vehicle id="123" depart="899.0">
        <route edges="s_t t_w"/>
    </vehicle>
    <vehicle id="124" depart="906.0">
        <route edges="e_t t_s"/>
    </vehicle>
    <vehicle id="125" depart="912.0">
        <route edges="s_t t_n"/>
    </vehicle>
    <vehicle id="126" depart="918.0">
        <route edges="w_t t_e"/>
    </vehicle>
    <vehicle id="127" depart="921.0">
        <route edges="w_t t_e"/>
    </vehicle>
    <vehicle id="128" depart="925.0">
        <route edges="w_t t_e"/>
    </vehicle>
    <vehicle id="129" depart="928.0">
        <route edges="e_t t_s"/>
    </vehicle>
    <vehicle id="130" depart="935.0">
        <route edges="w_t t_n"/>
    </vehicle>
    <vehicle id="131" depart="948.0">
        <route edges="n_t t_s"/>
    </vehicle>
    <vehicle id="132" depart="960.0">
        <route edges="e_t t_s"/>
    </vehicle>
    <vehicle id="133" depart="969.0">
        <route edges="e_t t_n"/>
    </vehicle>
    <vehicle id="134" depart="972.0">
        <route edges="w_t t_n"/>
    </vehicle>
    <vehicle id="135" depart="973.0">
        <route edges="e_t t_s s_t t_e"/>
    </vehicle>
    <vehicle id="136" depart="981.0">
        <route edges="s_t t_n"/>
    </vehicle>
    <vehicle id="137" depart="986.0">
        <route edges="w_t t_s"/>
    </vehicle>
    <vehicle id="138" depart="987.0">
        <route edges="e_t t_w"/>
    </vehicle>
    <vehicle id="139" depart="990.0">
        <route edges="w_t t_n n_t t_w"/>
    </vehicle>
    <vehicle id="140" depart="990.0">
        <route edges="w_t t_s"/>
    </vehicle>
    <vehicle id="141" depart="991.0">
        <route edges="s_t t_e e_t t_s"/>
    </vehicle>
    <vehicle id="142" depart="997.0">
        <route edges="s_t t_n"/>
    </vehicle>
    <vehicle id="143" depart="999.0">
        <route edges="e_t t_s"/>
    </vehicle>
    <vehicle id="144" depart="1007.0">
        <route edges="s_t t_e"/>
    </vehicle>
    <vehicle id="145" depart="1011.0">
        <route edges="s_t t_e e_t t_s"/>
    </vehicle>
    <vehicle id="146" depart="1012.0">
        <route edges="s_t t_w"/>
    </vehicle>
    <vehicle id="147" depart="1015.0">
        <route edges="w_t t_n"/>
    </vehicle>
    <vehicle id="148" depart="1031.0">
        <route edges="w_t t_n"/>
    </vehicle>
    <vehicle id="149" depart="1034.0">
        <route edges="s_t t_n"/>
    </vehicle>
    <vehicle id="150" depart="1038.0">
        <route edges="w_t t_n"/>
    </vehicle>
    <vehicle id="151" depart="1038.0">
        <route edges="w_t t_n"/>
    </vehicle>
    <vehicle id="152" depart="1042.0">
        <route edges="s_t t_w"/>
    </vehicle>
    <vehicle id="153" depart="1045.0">
        <route edges="s_t t_n"/>
    </vehicle>
    <vehicle id="154" depart="1050.0">
        <route edges="e_t t_n"/>
    </vehicle>
    <vehicle id="155" depart="1065.0">
        <route edges="n_t t_w"/>
    </vehicle>
    <vehicle id="156" depart="1065.0">
        <route edges="w_t t_n n_t t_w"/>
    </vehicle>
    <vehicle id="157" depart="1067.0">
        <route edges="n_t t_e e_t t_n"/>
    </vehicle>
    <vehicle id="158" depart="1075.0">
        <route edges="s_t t_e e_t t_s"/>
    </vehicle>
    <vehicle id="159" depart="1090.0">
        <route edges="e_t t_s s_t t_e"/>
    </vehicle>
    <vehicle id="160" depart="1094.0">
        <route edges="e_t t_n"/>
    </vehicle>
    <vehicle id="161" depart="1096.0">
        <route edges="n_t t_w"/>
    </vehicle>
    <vehicle id="162" depart="1096.0">
        <route edges="e_t t_w"/>
    </vehicle>
    <vehicle id="163" depart="1097.0">
        <route edges="n_t t_e"/>
    </vehicle>
    <vehicle id="164" depart="1103.0">
        <route edges="w_t t_e"/>
    </vehicle>
    <vehicle id="165" depart="1106.0">
        <route edges="e_t t_s s_t t_e"/>
    </vehicle>
    <vehicle id="166" depart="1111.0">
        <route edges="e_t t_n"/>
    </vehicle>
    <vehicle id="167" depart="1112.0">
        <route edges="e_t t_s s_t t_e"/>
    </vehicle>
    <vehicle id="168" depart="1116.0">
        <route edges="e_t t_s"/>
    </vehicle>
    <vehicle id="169" depart="1121.0">
        <route edges="e_t t_s s_t t_e"/>
    </vehicle>
    <vehicle id="170" depart="1125.0">
        <route edges="s_t t_w"/>
    </vehicle>
    <vehicle id="171" depart="1126.0">
        <route edges="s_t t_e e_t t_s"/>
    </vehicle>
    <vehicle id="172" depart="1129.0">
        <route edges="s_t t_w"/>
    </vehicle>
    <vehicle id="173" depart="1131.0">
        <route edges="w_t t_e"/>
    </vehicle>
    <vehicle id="174" depart="1131.0">
        <route edges="e_t t_s"/>
    </vehicle>
    <vehicle id="175" depart="1136.0">
        <route edges="s_t t_e e_t t_s"/>
    </vehicle>
    <vehicle id="176" depart="1138.0">
        <route edges="w_t t_e"/>
    </vehicle>
    <vehicle id="177" depart="1142.0">
        <route edges="s_t t_n"/>
    </vehicle>
    <vehicle id="178" depart="1148.0">
        <route edges="n_t t_e"/>
    </vehicle>
    <vehicle id="179" depart="1153.0">
        <route edges="n_t t_s"/>
    </vehicle>
    <vehicle id="180" depart="1154.0">
        <route edges="s_t t_w"/>
    </vehicle>
    <vehicle id="181" depart="1158.0">
        <route edges="n_t t_s"/>
    </vehicle>
    <vehicle id="182" depart="1166.0">
        <route edges="e_t t_s"/>
    </vehicle>
    <vehicle id="183" depart="1169.0">
        <route edges="e_t t_w"/>
    </vehicle>
    <vehicle id="184" depart="1188.0">
        <route edges="w_t t_n"/>
    </vehicle>
    <vehicle id="185" depart="1190.0">
        <route edges="w_t t_e"/>
    </vehicle>
    <vehicle id="186" depart="1194.0">
        <route edges="n_t t_e"/>
    </vehicle>
    <vehicle id="187" depart="1195.0">
        <route edges="n_t t_e"/>
    </vehicle>
    <vehicle id="188" depart="1197.0">
        <route edges="s_t t_e e_t t_s"/>
    </vehicle>
    <vehicle id="189" depart="1203.0">
        <route edges="n_t t_s"/>
    </vehicle>
    <vehicle id="190" depart="1204.0">
        <route edges="e_t t_n"/>
    </vehicle>
    <vehicle id="191" depart="1207.0">
        <route edges="n_t t_e"/>
    </vehicle>
    <vehicle id="192" depart="1212.0">
        <route edges="w_t t_e"/>
    </vehicle>
    <vehicle id="193" depart="1213.0">
        <route edges="e_t t_w"/>
    </vehicle>
    <vehicle id="194" depart="1216.0">
        <route edges="w_t t_n"/>
    </vehicle>
    <vehicle id="195" depart="1217.0">
        <route edges="n_t t_e"/>
    </vehicle>
    <vehicle id="196" depart="1220.0">
        <route edges="e_t t_s"/>
    </vehicle>
    <vehicle id="197" depart="1225.0">
        <route edges="e_t t_s s_t t_e"/>
    </vehicle>
    <vehicle id="198" depart="1239.0">
        <route edges="w_t t_e"/>
    </vehicle>
    <vehicle id="199" depart="1243.0">
        <route edges="n_t t_w"/>
    </vehicle>
    <vehicle id="200" depart="1247.0">
        <route edges="s_t t_e"/>
    </vehicle>
    <vehicle id="201" depart="1263.0">
        <route edges="s_t t_e e_t t_s"/>
    </vehicle>
    <vehicle id="202" depart="1269.0">
        <route edges="s_t t_w"/>
    </vehicle>
    <vehicle id="203" depart="1275.0">
        <route edges="w_t t_s"/>
    </vehicle>
    <vehicle id="204" depart="1279.0">
        <route edges="w_t t_n"/>
    </vehicle>
    <vehicle id="205" depart="1282.0">
        <route edges="s_t t_w"/>
    </vehicle>
    <vehicle id="206" depart="1286.0">
        <route edges="s_t t_n"/>
    </vehicle>
    <vehicle id="207" depart="1300.0">
        <route edges="e_t t_w"/>
    </vehicle>
    <vehicle id="208" depart="1302.0">
        <route edges="n_t t_e e_t t_n"/>
    </vehicle>
    <vehicle id="209" depart="1304.0">
        <route edges="n_t t_s"/>
    </vehicle>
    <vehicle id="210" depart="1305.0">
        <route edges="n_t t_w"/>
    </vehicle>
    <vehicle id="211" depart="1306.0">
        <route edges="s_t t_e e_t t_s"/>
    </vehicle>
    <vehicle id="212" depart="1318.0">
        <route edges="w_t t_n"/>
    </vehicle>
    <vehicle id="213" depart="1325.0">
        <route edges="s_t t_w"/>
    </vehicle>
    <vehicle id="214" depart="1330.0">
        <route edges="s_t t_e e_t t_s"/>
    </vehicle>
    <vehicle id="215" depart="1331.0">
        <route edges="w_t t_s"/>
    </vehicle>
    <vehicle id="216" depart="1335.0">
        <route edges="s_t t_e"/>
    </vehicle>
    <vehicle id="217" depart="1339.0">
        <route edges="e_t t_n"/>
    </vehicle>
    <vehicle id="218" depart="1340.0">
        <route edges="n_t t_w"/>
    </vehicle>
    <vehicle id="219" depart="1343.0">
        <route edges="e_t t_n"/>
    </vehicle>
    <vehicle id="220" depart="1344.0">
        <route edges="s_t t_n"/>
    </vehicle>
    <vehicle id="221" depart="1345.0">
        <route edges="w_t t_e"/>
    </vehicle>
    <vehicle id="222" depart="1347.0">
        <route edges="w_t t_n"/>
    </vehicle>
    <vehicle id="223" depart="1353.0">
        <route edges="s_t t_e"/>
    </vehicle>
    <vehicle id="224" depart="1354.0">
        <route edges="n_t t_w"/>
    </vehicle>
    <vehicle id="225" depart="1356.0">
        <route edges="s_t t_e e_t t_s"/>
    </vehicle>
    <vehicle id="226" depart="1358.0">
        <route edges="n_t t_e"/>
    </vehicle>
    <vehicle id="227" depart="1359.0">
        <route edges="s_t t_n"/>
    </vehicle>
    <vehicle id="228" depart="1362.0">
        <route edges="s_t t_e e_t t_s"/>
    </vehicle>
    <vehicle id="229" depart="1369.0">
        <route edges="n_t t_w"/>
    </vehicle>
    <vehicle id="230" depart="1378.0">
        <route edges="e_t t_w"/>
    </vehicle>
    <vehicle id="231" depart="1380.0">
        <route edges="e_t t_w"/>
    </vehicle>
    <vehicle id="232" depart="1381.0">
        <route edges="s_t t_n"/>
    </vehicle>
    <vehicle id="233" depart="1386.0">
        <route edges="w_t t_s"/>
    </vehicle>
    <vehicle id="234" depart="1390.0">
        <route edges="s_t t_e"/>
    </vehicle>
    <vehicle id="235" depart="1393.0">
        <route edges="w_t t_s"/>
    </vehicle>
    <vehicle id="236" depart="1394.0">
        <route edges="e_t t_s s_t t_e"/>
    </vehicle>
    <vehicle id="237" depart="1404.0">
        <route edges="n_t t_w"/>
    </vehicle>
    <vehicle id="238" depart="1405.0">
        <route edges="w_t t_n"/>
    </vehicle>
    <vehicle id="239" depart="1406.0">
        <route edges="e_t t_w"/>
    </vehicle>
    <vehicle id="240" depart="1408.0">
        <route edges="e_t t_s"/>
    </vehicle>
    <vehicle id="241" depart="1413.0">
        <route edges="n_t t_w"/>
    </vehicle>
    <vehicle id="242" depart="1414.0">
        <route edges="e_t t_w"/>
    </vehicle>
    <vehicle id="243" depart="1414.0">
        <route edges="s_t t_e"/>
    </vehicle>
    <vehicle id="244" depart="1418.0">
        <route edges="s_t t_n"/>
    </vehicle>
    <vehicle id="245" depart="1418.0">
        <route edges="s_t t_w"/>
    </vehicle>
    <vehicle id="246" depart="1423.0">
        <route edges="s_t t_n"/>
    </vehicle>
    <vehicle id="247" depart="1425.0">
        <route edges="s_t t_e"/>
    </vehicle>
    <vehicle id="248" depart="1429.0">
        <route edges="n_t t_e"/>
    </vehicle>
    <vehicle id="249" depart="1430.0">
        <route edges="s_t t_e"/>
    </vehicle>
    <vehicle id="250" depart="1430.0">
        <route edges="s_t t_e"/>
    </vehicle>
    <vehicle id="251" depart="1431.0">
        <route edges="s_t t_e"/>
    </vehicle>
    <vehicle id="252" depart="1449.0">
        <route edges="e_t t_s"/>
    </vehicle>
    <vehicle id="253" depart="1450.0">
        <route edges="s_t t_w"/>
    </vehicle>
    <vehicle id="254" depart="1465.0">
        <route edges="s_t t_w"/>
    </vehicle>
    <vehicle id="255" depart="1468.0">
        <route edges="e_t t_s"/>
    </vehicle>
    <vehicle id="256" depart="1469.0">
        <route edges="s_t t_e"/>
    </vehicle>
    <vehicle id="257" depart="1484.0">
        <route edges="e_t t_s s_t t_e"/>
    </vehicle>
    <vehicle id="258" depart="1485.0">
        <route edges="s_t t_w"/>
    </vehicle>
    <vehicle id="259" depart="1494.0">
        <route edges="s_t t_e e_t t_s"/>
    </vehicle>
    <vehicle id="260" depart="1498.0">
        <route edges="e_t t_s"/>
    </vehicle>
    <vehicle id="261" depart="1499.0">
        <route edges="s_t t_e"/>
    </vehicle>
    <vehicle id="262" depart="1500.0">
        <route edges="s_t t_e"/>
    </vehicle>
    <vehicle id="263" depart="1506.0">
        <route edges="n_t t_e e_t t_n"/>
    </vehicle>
    <vehicle id="264" depart="1514.0">
        <route edges="w_t t_e"/>
    </vehicle>
    <vehicle id="265" depart="1514.0">
        <route edges="n_t t_e"/>
    </vehicle>
    <vehicle id="266" depart="1523.0">
        <route edges="s_t t_w"/>
    </vehicle>
    <vehicle id="267" depart="1528.0">
        <route edges="n_t t_s"/>
    </vehicle>
    <vehicle id="268" depart="1528.0">
        <route edges="n_t t_e"/>
    </vehicle>
    <vehicle id="269" depart="1529.0">
        <route edges="n_t t_s"/>
    </vehicle>
    <vehicle id="270" depart="1533.0">
        <route edges="w_t t_s"/>
    </vehicle>
    <vehicle id="271" depart="1535.0">
        <route edges="e_t t_w"/>
    </vehicle>
    <vehicle id="272" depart="1545.0">
        <route edges="s_t t_n"/>
    </vehicle>
    <vehicle id="273" depart="1547.0">
        <route edges="e_t t_n"/>
    </vehicle>
    <vehicle id="274" depart="1553.0">
        <route edges="s_t t_n"/>
    </vehicle>
    <vehicle id="275" depart="1561.0">
        <route edges="e_t t_w"/>
    </vehicle>
    <vehicle id="276" depart="1562.0">
        <route edges="n_t t_e"/>
    </vehicle>
    <vehicle id="277" depart="1563.0">
        <route edges="w_t t_e"/>
    </vehicle>
    <vehicle id="278" depart="1574.0">
        <route edges="n_t t_s"/>
    </vehicle>
    <vehicle id="279" depart="1585.0">
        <route edges="s_t t_w"/>
    </vehicle>
    <vehicle id="280" depart="1586.0">
        <route edges="e_t t_s"/>
    </vehicle>
    <vehicle id="281" depart="1588.0">
        <route edges="w_t t_n"/>
    </vehicle>
    <vehicle id="282" depart="1589.0">
        <route edges="s_t t_n"/>
    </vehicle>
    <vehicle id="283" depart="1590.0">
        <route edges="s_t t_w"/>
    </vehicle>
    <vehicle id="284" depart="1592.0">
        <route edges="n_t t_s"/>
    </vehicle>
    <vehicle id="285" depart="1594.0">
        <route edges="n_t t_w"/>
    </vehicle>
    <vehicle id="286" depart="1597.0">
        <route edges="w_t t_n n_t t_w"/>
    </vehicle>
    <vehicle id="287" depart="1608.0">
        <route edges="w_t t_s"/>
    </vehicle>
    <vehicle id="288" depart="1611.0">
        <route edges="w_t t_e"/>
    </vehicle>
    <vehicle id="289" depart="1614.0">
        <route edges="s_t t_e"/>
    </vehicle>
    <vehicle id="290" depart="1614.0">
        <route edges="s_t t_e e_t t_s"/>
    </vehicle>
    <vehicle id="291" depart="1623.0">
        <route edges="n_t t_w"/>
    </vehicle>
    <vehicle id="292" depart="1629.0">
        <route edges="n_t t_e"/>
    </vehicle>
    <vehicle id="293" depart="1629.0">
        <route edges="e_t t_s"/>
    </vehicle>
    <vehicle id="294" depart="1636.0">
        <route edges="n_t t_e"/>
    </vehicle>
    <vehicle id="295" depart="1636.0">
        <route edges="n_t t_w"/>
    </vehicle>
    <vehicle id="296" depart="1642.0">
        <route edges="n_t t_s"/>
    </vehicle>
    <vehicle id="297" depart="1645.0">
        <route edges="n_t t_e"/>
    </vehicle>
    <vehicle id="298" depart="1649.0">
        <route edges="s_t t_e"/>
    </vehicle>
    <vehicle id="299" depart="1651.0">
        <route edges="e_t t_s"/>
    </vehicle>
    <vehicle id="300" depart="1651.0">
        <route edges="s_t t_e"/>
    </vehicle>
    <vehicle id="301" depart="1656.0">
        <route edges="w_t t_e"/>
    </vehicle>
    <vehicle id="302" depart="1657.0">
        <route edges="e_t t_n"/>
    </vehicle>
    <vehicle id="303" depart="1658.0">
        <route edges="w_t t_s"/>
    </vehicle>
    <vehicle id="304" depart="1658.0">
        <route edges="s_t t_n"/>
    </vehicle>
    <vehicle id="305" depart="1659.0">
        <route edges="w_t t_e"/>
    </vehicle>
    <vehicle id="306" depart="1663.0">
        <route edges="w_t t_e"/>
    </vehicle>
    <vehicle id="307" depart="1690.0">
        <route edges="e_t t_w"/>
    </vehicle>
    <vehicle id="308" depart="1693.0">
        <route edges="w_t t_s"/>
    </vehicle>
    <vehicle id="309" depart="1695.0">
        <route edges="e_t t_w"/>
    </vehicle>
    <vehicle id="310" depart="1696.0">
        <route edges="s_t t_e"/>
    </vehicle>
    <vehicle id="311" depart="1703.0">
        <route edges="e_t t_w"/>
    </vehicle>
    <vehicle id="312" depart="1704.0">
        <route edges="e_t t_s s_t t_e"/>
    </vehicle>
    <vehicle id="313" depart="1709.0">
        <route edges="n_t t_w"/>
    </vehicle>
    <vehicle id="314" depart="1710.0">
        <route edges="w_t t_n n_t t_w"/>
    </vehicle>
    <vehicle id="315" depart="1737.0">
        <route edges="s_t t_e"/>
    </vehicle>
    <vehicle id="316" depart="1741.0">
        <route edges="s_t t_e"/>
    </vehicle>
    <vehicle id="317" depart="1767.0">
        <route edges="w_t t_n n_t t_w"/>
    </vehicle>
    <vehicle id="318" depart="1767.0">
        <route edges="e_t t_s"/>
    </vehicle>
    <vehicle id="319" depart="1771.0">
        <route edges="e_t t_s s_t t_e"/>
    </vehicle>
    <vehicle id="320" depart="1771.0">
        <route edges="w_t t_n"/>
    </vehicle>
    <vehicle id="321" depart="1778.0">
        <route edges="n_t t_s"/>
    </vehicle>
    <vehicle id="322" depart="1786.0">
        <route edges="e_t t_n"/>
    </vehicle>
    <vehicle id="323" depart="1793.0">
        <route edges="s_t t_w"/>
    </vehicle>
    <vehicle id="324" depart="1809.0">
        <route edges="e_t t_w"/>
    </vehicle>
    <vehicle id="325" depart="1812.0">
        <route edges="e_t t_s s_t t_e"/>
    </vehicle>
    <vehicle id="326" depart="1832.0">
        <route edges="n_t t_e"/>
    </vehicle>