<?xml version="1.0" encoding="UTF-8"?>

<!-- generated on 2023-06-30 22:44:26.398299 by randomTrips.py UNKNOWN
<configuration>
    <net-file value="nets/2way-single-intersection/single-intersection.net.xml"/>
    <route-file value="training/routes/2x2_tr_ep12.rou.xml"/>
    <seed value="12"/>
    <validate value="True"/>
    <end value="500.0"/>
</configuration>
-->

<!-- generated on 2023-06-30 22:44:26 by Eclipse SUMO duarouter Version v1_17_0+1256-16eabe86c67
<configuration xmlns:xsi="http://www.w3.org/2001/XMLSchema-instance" xsi:noNamespaceSchemaLocation="http://sumo.dlr.de/xsd/duarouterConfiguration.xsd">

    <input>
        <net-file value="nets/2way-single-intersection/single-intersection.net.xml"/>
        <route-files value="trips.trips.xml"/>
    </input>

    <output>
        <output-file value="training/routes/2x2_tr_ep12.rou.xml"/>
        <alternatives-output value="NUL"/>
    </output>

    <time>
        <begin value="0"/>
        <end value="500.0"/>
    </time>

    <report>
        <no-warnings value="true"/>
        <ignore-errors value="true"/>
        <no-step-log value="true"/>
    </report>

</configuration>
-->

<routes xmlns:xsi="http://www.w3.org/2001/XMLSchema-instance" xsi:noNamespaceSchemaLocation="http://sumo.dlr.de/xsd/routes_file.xsd">
    <vehicle id="0" depart="59.0">
        <route edges="n_t t_s"/>
    </vehicle>
    <vehicle id="1" depart="92.0">
        <route edges="s_t t_e"/>
    </vehicle>
    <vehicle id="2" depart="109.0">
        <route edges="e_t t_n"/>
    </vehicle>
    <vehicle id="3" depart="170.0">
        <route edges="n_t t_w"/>
    </vehicle>
    <vehicle id="4" depart="170.0">
        <route edges="s_t t_e e_t t_s"/>
    </vehicle>
    <vehicle id="5" depart="185.0">
        <route edges="s_t t_e e_t t_s"/>
    </vehicle>
    <vehicle id="6" depart="186.0">
        <route edges="e_t t_n"/>
    </vehicle>
    <vehicle id="7" depart="194.0">
        <route edges="e_t t_w"/>
    </vehicle>
    <vehicle id="8" depart="209.0">
        <route edges="e_t t_w"/>
    </vehicle>
    <vehicle id="9" depart="220.0">
        <route edges="e_t t_s"/>
    </vehicle>
    <vehicle id="10" depart="261.0">
        <route edges="n_t t_e e_t t_n"/>
    </vehicle>
    <vehicle id="11" depart="263.0">
        <route edges="w_t t_e"/>
    </vehicle>
    <vehicle id="12" depart="271.0">
        <route edges="e_t t_w"/>
    </vehicle>
    <vehicle id="13" depart="273.0">
        <route edges="s_t t_e"/>
    </vehicle>
    <vehicle id="14" depart="284.0">
        <route edges="w_t t_n n_t t_w"/>
    </vehicle>
    <vehicle id="15" depart="285.0">
        <route edges="e_t t_n"/>
    </vehicle>
    <vehicle id="16" depart="295.0">
        <route edges="e_t t_n"/>
    </vehicle>
    <vehicle id="17" depart="308.0">
        <route edges="s_t t_e"/>
    </vehicle>
    <vehicle id="18" depart="311.0">
        <route edges="s_t t_e"/>
    </vehicle>
    <vehicle id="19" depart="337.0">
        <route edges="e_t t_w"/>
    </vehicle>
    <vehicle id="20" depart="337.0">
        <route edges="n_t t_e e_t t_n"/>
    </vehicle>
    <vehicle id="21" depart="352.0">
        <route edges="s_t t_n"/>
    </vehicle>
    <vehicle id="22" depart="362.0">
        <route edges="n_t t_e"/>
    </vehicle>
    <vehicle id="23" depart="363.0">
        <route edges="s_t t_w"/>
    </vehicle>
    <vehicle id="24" depart="369.0">
        <route edges="w_t t_s"/>
    </vehicle>
    <vehicle id="25" depart="393.0">
        <route edges="n_t t_e e_t t_n"/>
    </vehicle>
    <vehicle id="26" depart="401.0">
        <route edges="s_t t_e e_t t_s"/>
    </vehicle>
    <vehicle id="27" depart="403.0">
        <route edges="e_t t_s s_t t_e"/>
    </vehicle>
    <vehicle id="28" depart="418.0">
        <route edges="n_t t_s"/>
    </vehicle>
    <vehicle id="29" depart="422.0">
        <route edges="w_t t_s"/>
    </vehicle>
    <vehicle id="30" depart="431.0">
        <route edges="e_t t_w"/>
    </vehicle>
    <vehicle id="31" depart="440.0">
        <route edges="n_t t_s"/>
    </vehicle>
    <vehicle id="32" depart="453.0">
        <route edges="e_t t_n"/>
    </vehicle>
    <vehicle id="33" depart="453.0">
        <route edges="n_t t_w"/>
    </vehicle>
    <vehicle id="34" depart="461.0">
        <route edges="e_t t_s"/>
    </vehicle>
    <vehicle id="35" depart="467.0">
        <route edges="e_t t_s"/>
    </vehicle>
    <vehicle id="36" depart="468.0">
        <route edges="e_t t_n"/>
    </vehicle>
    <vehicle id="37" depart="473.0">
        <route edges="n_t t_s"/>
    </vehicle>
    <vehicle id="38" depart="477.0">
        <route edges="e_t t_n"/>
    </vehicle>
    <vehicle id="39" depart="481.0">
        <route edges="e_t t_n"/>
    </vehicle>
    <vehicle id="40" depart="492.0">
        <route edges="n_t t_w"/>
    </vehicle>
    <vehicle id="41" depart="493.0">
        <route edges="n_t t_w"/>
    </vehicle>
    <vehicle id="42" depart="497.0">
        <route edges="e_t t_w"/>
    </vehicle>
    <vehicle id="43" depart="505.0">
        <route edges="n_t t_e"/>
    </vehicle>
    <vehicle id="44" depart="509.0">
        <route edges="s_t t_w"/>
    </vehicle>
    <vehicle id="45" depart="510.0">
        <route edges="e_t t_n"/>
    </vehicle>
    <vehicle id="46" depart="517.0">
        <route edges="w_t t_n"/>
    </vehicle>
    <vehicle id="47" depart="525.0">
        <route edges="e_t t_s s_t t_e"/>
    </vehicle>
    <vehicle id="48" depart="529.0">
        <route edges="e_t t_s"/>
    </vehicle>
    <vehicle id="49" depart="555.0">
        <route edges="w_t t_n n_t t_w"/>
    </vehicle>
    <vehicle id="50" depart="557.0">
        <route edges="s_t t_e"/>
    </vehicle>
    <vehicle id="51" depart="569.0">
        <route edges="n_t t_w"/>
    </vehicle>
    <vehicle id="52" depart="569.0">
        <route edges="w_t t_s"/>
    </vehicle>
    <vehicle id="53" depart="576.0">
        <route edges="e_t t_s"/>
    </vehicle>
    <vehicle id="54" depart="580.0">
        <route edges="n_t t_s"/>
    </vehicle>
    <vehicle id="55" depart="582.0">
        <route edges="n_t t_w"/>
    </vehicle>
    <vehicle id="56" depart="593.0">
        <route edges="w_t t_e"/>
    </vehicle>
    <vehicle id="57" depart="594.0">
        <route edges="n_t t_w"/>
    </vehicle>
    <vehicle id="58" depart="596.0">
        <route edges="n_t t_w"/>
    </vehicle>
    <vehicle id="59" depart="600.0">
        <route edges="s_t t_e e_t t_s"/>
    </vehicle>
    <vehicle id="60" depart="640.0">
        <route edges="s_t t_e"/>
    </vehicle>
    <vehicle id="61" depart="644.0">
        <route edges="n_t t_e e_t t_n"/>
    </vehicle>
    <vehicle id="62" depart="645.0">
        <route edges="s_t t_e e_t t_s"/>
    </vehicle>
    <vehicle id="63" depart="646.0">
        <route edges="e_t t_w"/>
    </vehicle>
    <vehicle id="64" depart="653.0">
        <route edges="n_t t_e"/>
    </vehicle>
    <vehicle id="65" depart="665.0">
        <route edges="n_t t_w"/>
    </vehicle>
    <vehicle id="66" depart="665.0">
        <route edges="s_t t_e e_t t_s"/>
    </vehicle>
    <vehicle id="67" depart="666.0">
        <route edges="w_t t_n n_t t_w"/>
    </vehicle>
    <vehicle id="68" depart="678.0">
        <route edges="w_t t_n"/>
    </vehicle>
    <vehicle id="69" depart="682.0">
        <route edges="s_t t_w"/>
    </vehicle>
    <vehicle id="70" depart="687.0">
        <route edges="w_t t_s"/>
    </vehicle>
    <vehicle id="71" depart="696.0">
        <route edges="n_t t_e e_t t_n"/>
    </vehicle>
    <vehicle id="72" depart="707.0">
        <route edges="s_t t_e e_t t_s"/>
    </vehicle>
    <vehicle id="73" depart="713.0">
        <route edges="e_t t_s"/>
    </vehicle>
    <vehicle id="74" depart="721.0">
        <route edges="w_t t_n n_t t_w"/>
    </vehicle>
    <vehicle id="75" depart="725.0">
        <route edges="w_t t_n n_t t_w"/>
    </vehicle>
    <vehicle id="76" depart="725.0">
        <route edges="s_t t_w"/>
    </vehicle>
    <vehicle id="77" depart="731.0">
        <route edges="n_t t_e"/>
    </vehicle>
    <vehicle id="78" depart="734.0">
        <route edges="n_t t_e e_t t_n"/>
    </vehicle>
    <vehicle id="79" depart="761.0">
        <route edges="w_t t_s"/>
    </vehicle>
    <vehicle id="80" depart="767.0">
        <route edges="s_t t_e e_t t_s"/>
    </vehicle>
    <vehicle id="81" depart="768.0">
        <route edges="e_t t_s"/>
    </vehicle>
    <vehicle id="82" depart="778.0">
        <route edges="s_t t_n"/>
    </vehicle>
    <vehicle id="83" depart="779.0">
        <route edges="e_t t_n"/>
    </vehicle>
    <vehicle id="84" depart="779.0">
        <route edges="n_t t_s"/>
    </vehicle>
    <vehicle id="85" depart="787.0">
        <route edges="e_t t_s s_t t_e"/>
    </vehicle>
    <vehicle id="86" depart="789.0">
        <route edges="n_t t_s"/>
    </vehicle>
    <vehicle id="87" depart="793.0">
        <route edges="w_t t_s"/>
    </vehicle>
    <vehicle id="88" depart="796.0">
        <route edges="w_t t_n"/>
    </vehicle>
    <vehicle id="89" depart="797.0">
        <route edges="e_t t_n"/>
    </vehicle>
    <vehicle id="90" depart="799.0">
        <route edges="n_t t_e"/>
    </vehicle>
    <vehicle id="91" depart="801.0">
        <route edges="s_t t_n"/>
    </vehicle>
    <vehicle id="92" depart="804.0">
        <route edges="e_t t_n"/>
    </vehicle>
    <vehicle id="93" depart="806.0">
        <route edges="w_t t_e"/>
    </vehicle>
    <vehicle id="94" depart="809.0">
        <route edges="n_t t_e e_t t_n"/>
    </vehicle>
    <vehicle id="95" depart="811.0">
        <route edges="e_t t_n"/>
    </vehicle>
    <vehicle id="96" depart="813.0">
        <route edges="e_t t_w"/>
    </vehicle>
    <vehicle id="97" depart="814.0">
        <route edges="s_t t_e e_t t_s"/>
    </vehicle>
    <vehicle id="98" depart="824.0">
        <route edges="e_t t_n"/>
    </vehicle>
    <vehicle id="99" depart="827.0">
        <route edges="s_t t_w"/>
    </vehicle>
    <vehicle id="100" depart="838.0">
        <route edges="e_t t_n"/>
    </vehicle>
    <vehicle id="101" depart="839.0">
        <route edges="w_t t_n n_t t_w"/>
    </vehicle>
    <vehicle id="102" depart="844.0">
        <route edges="e_t t_s"/>
    </vehicle>
    <vehicle id="103" depart="858.0">
        <route edges="w_t t_n"/>
    </vehicle>
    <vehicle id="104" depart="865.0">
        <route edges="s_t t_e e_t t_s"/>
    </vehicle>
    <vehicle id="105" depart="867.0">
        <route edges="w_t t_s"/>
    </vehicle>
    <vehicle id="106" depart="871.0">
        <route edges="s_t t_n"/>
    </vehicle>
    <vehicle id="107" depart="875.0">
        <route edges="s_t t_n"/>
    </vehicle>
    <vehicle id="108" depart="879.0">
        <route edges="n_t t_e e_t t_n"/>
    </vehicle>
    <vehicle id="109" depart="881.0">
        <route edges="n_t t_e"/>
    </vehicle>
    <vehicle id="110" depart="889.0">
        <route edges="e_t t_s"/>
    </vehicle>
    <vehicle id="111" depart="896.0">
        <route edges="n_t t_e"/>
    </vehicle>
    <vehicle id="112" depart="897.0">
        <route edges="w_t t_n"/>
    </vehicle>
    <vehicle id="113" depart="900.0">
        <route edges="w_t t_s"/>
    </vehicle>
    <vehicle id="114" depart="905.0">
        <route edges="n_t t_w"/>
    </vehicle>
    <vehicle id="115" depart="907.0">
        <route edges="w_t t_n"/>
    </vehicle>
    <vehicle id="116" depart="907.0">
        <route edges="e_t t_s"/>
    </vehicle>
    <vehicle id="117" depart="920.0">
        <route edges="w_t t_s"/>
    </vehicle>
    <vehicle id="118" depart="925.0">
        <route edges="w_t t_n"/>
    </vehicle>
    <vehicle id="119" depart="947.0">
        <route edges="s_t t_n"/>
    </vehicle>
    <vehicle id="120" depart="954.0">
        <route edges="n_t t_e e_t t_n"/>
    </vehicle>
    <vehicle id="121" depart="956.0">
        <route edges="n_t t_e e_t t_n"/>
    </vehicle>
    <vehicle id="122" depart="960.0">
        <route edges="w_t t_e"/>
    </vehicle>
    <vehicle id="123" depart="961.0">
        <route edges="e_t t_n"/>
    </vehicle>
    <vehicle id="124" depart="972.0">
        <route edges="w_t t_s"/>
    </vehicle>
    <vehicle id="125" depart="977.0">
        <route edges="e_t t_w"/>
    </vehicle>
    <vehicle id="126" depart="980.0">
        <route edges="w_t t_n n_t t_w"/>
    </vehicle>
    <vehicle id="127" depart="983.0">
        <route edges="n_t t_s"/>
    </vehicle>
    <vehicle id="128" depart="984.0">
        <route edges="n_t t_e"/>
    </vehicle>
    <vehicle id="129" depart="986.0">
        <route edges="w_t t_n n_t t_w"/>
    </vehicle>
    <vehicle id="130" depart="987.0">
        <route edges="e_t t_w"/>
    </vehicle>
    <vehicle id="131" depart="992.0">
        <route edges="e_t t_n"/>
    </vehicle>
    <vehicle id="132" depart="996.0">
        <route edges="e_t t_s s_t t_e"/>
    </vehicle>
    <vehicle id="133" depart="1023.0">
        <route edges="e_t t_s"/>
    </vehicle>
    <vehicle id="134" depart="1025.0">
        <route edges="n_t t_e"/>
    </vehicle>
    <vehicle id="135" depart="1040.0">
        <route edges="e_t t_n"/>
    </vehicle>
    <vehicle id="136" depart="1043.0">
        <route edges="w_t t_s"/>
    </vehicle>
    <vehicle id="137" depart="1044.0">
        <route edges="e_t t_s"/>
    </vehicle>
    <vehicle id="138" depart="1046.0">
        <route edges="s_t t_n"/>
    </vehicle>
    <vehicle id="139" depart="1057.0">
        <route edges="s_t t_e e_t t_s"/>
    </vehicle>
    <vehicle id="140" depart="1081.0">
        <route edges="w_t t_s"/>
    </vehicle>
    <vehicle id="141" depart="1081.0">
        <route edges="s_t t_n"/>
    </vehicle>
    <vehicle id="142" depart="1083.0">
        <route edges="s_t t_n"/>
    </vehicle>
    <vehicle id="143" depart="1084.0">
        <route edges="n_t t_s"/>
    </vehicle>
    <vehicle id="144" depart="1091.0">
        <route edges="s_t t_n"/>
    </vehicle>
    <vehicle id="145" depart="1091.0">
        <route edges="w_t t_n"/>
    </vehicle>
    <vehicle id="146" depart="1099.0">
        <route edges="w_t t_s"/>
    </vehicle>
    <vehicle id="147" depart="1100.0">
        <route edges="w_t t_s"/>
    </vehicle>
    <vehicle id="148" depart="1103.0">
        <route edges="n_t t_e e_t t_n"/>
    </vehicle>
    <vehicle id="149" depart="1104.0">
        <route edges="s_t t_w"/>
    </vehicle>
    <vehicle id="150" depart="1106.0">
        <route edges="w_t t_e"/>
    </vehicle>
    <vehicle id="151" depart="1108.0">
        <route edges="e_t t_s s_t t_e"/>
    </vehicle>
    <vehicle id="152" depart="1111.0">
        <route edges="e_t t_s s_t t_e"/>
    </vehicle>
    <vehicle id="153" depart="1115.0">
        <route edges="e_t t_s s_t t_e"/>
    </vehicle>
    <vehicle id="154" depart="1123.0">
        <route edges="e_t t_s"/>
    </vehicle>
    <vehicle id="155" depart="1124.0">
        <route edges="s_t t_w"/>
    </vehicle>
    <vehicle id="156" depart="1139.0">
        <route edges="w_t t_s"/>
    </vehicle>
    <vehicle id="157" depart="1152.0">
        <route edges="w_t t_e"/>
    </vehicle>
    <vehicle id="158" depart="1159.0">
        <route edges="e_t t_w"/>
    </vehicle>
    <vehicle id="159" depart="1169.0">
        <route edges="n_t t_e"/>
    </vehicle>
    <vehicle id="160" depart="1169.0">
        <route edges="w_t t_n"/>
    </vehicle>
    <vehicle id="161" depart="1175.0">
        <route edges="s_t t_n"/>
    </vehicle>
    <vehicle id="162" depart="1179.0">
        <route edges="e_t t_s s_t t_e"/>
    </vehicle>
    <vehicle id="163" depart="1180.0">
        <route edges="s_t t_w"/>
    </vehicle>
    <vehicle id="164" depart="1184.0">
        <route edges="w_t t_n n_t t_w"/>
    </vehicle>
    <vehicle id="165" depart="1197.0">
        <route edges="w_t t_n"/>
    </vehicle>
    <vehicle id="166" depart="1204.0">
        <route edges="n_t t_w"/>
    </vehicle>
    <vehicle id="167" depart="1206.0">
        <route edges="s_t t_e e_t t_s"/>
    </vehicle>
    <vehicle id="168" depart="1208.0">
        <route edges="e_t t_s s_t t_e"/>
    </vehicle>
    <vehicle id="169" depart="1213.0">
        <route edges="n_t t_s"/>
    </vehicle>
    <vehicle id="170" depart="1222.0">
        <route edges="w_t t_n n_t t_w"/>
    </vehicle>
    <vehicle id="171" depart="1222.0">
        <route edges="n_t t_e e_t t_n"/>
    </vehicle>
    <vehicle id="172" depart="1224.0">
        <route edges="w_t t_n n_t t_w"/>
    </vehicle>
    <vehicle id="173" depart="1225.0">
        <route edges="n_t t_e"/>
    </vehicle>
    <vehicle id="174" depart="1228.0">
        <route edges="s_t t_e e_t t_s"/>
    </vehicle>
    <vehicle id="175" depart="1228.0">
        <route edges="n_t t_e"/>
    </vehicle>
    <vehicle id="176" depart="1235.0">
        <route edges="n_t t_s"/>
    </vehicle>
    <vehicle id="177" depart="1236.0">
        <route edges="e_t t_s"/>
    </vehicle>
    <vehicle id="178" depart="1237.0">
        <route edges="w_t t_s"/>
    </vehicle>
    <vehicle id="179" depart="1247.0">
        <route edges="n_t t_e e_t t_n"/>
    </vehicle>
    <vehicle id="180" depart="1248.0">
        <route edges="e_t t_s"/>
    </vehicle>
    <vehicle id="181" depart="1253.0">
        <route edges="s_t t_e"/>
    </vehicle>
    <vehicle id="182" depart="1255.0">
        <route edges="s_t t_e e_t t_s"/>
    </vehicle>
    <vehicle id="183" depart="1258.0">
        <route edges="s_t t_n"/>
    </vehicle>
    <vehicle id="184" depart="1262.0">
        <route edges="n_t t_e e_t t_n"/>
    </vehicle>
    <vehicle id="185" depart="1262.0">
        <route edges="w_t t_n"/>
    </vehicle>
    <vehicle id="186" depart="1264.0">
        <route edges="s_t t_n"/>
    </vehicle>
    <vehicle id="187" depart="1265.0">
        <route edges="e_t t_n"/>
    </vehicle>
    <vehicle id="188" depart="1265.0">
        <route edges="e_t t_n"/>
    </vehicle>
    <vehicle id="189" depart="1273.0">
        <route edges="n_t t_e e_t t_n"/>
    </vehicle>
    <vehicle id="190" depart="1279.0">
        <route edges="w_t t_n"/>
    </vehicle>
    <vehicle id="191" depart="1279.0">
        <route edges="n_t t_s"/>
    </vehicle>
    <vehicle id="192" depart="1280.0">
        <route edges="n_t t_s"/>
    </vehicle>
    <vehicle id="193" depart="1291.0">
        <route edges="s_t t_e"/>
    </vehicle>
    <vehicle id="194" depart="1292.0">
        <route edges="s_t t_e"/>
    </vehicle>
    <vehicle id="195" depart="1295.0">
        <route edges="n_t t_w"/>
    </vehicle>
    <vehicle id="196" depart="1309.0">
        <route edges="w_t t_s"/>
    </vehicle>
    <vehicle id="197" depart="1322.0">
        <route edges="e_t t_n"/>
    </vehicle>
    <vehicle id="198" depart="1322.0">
        <route edges="n_t t_w"/>
    </vehicle>
    <vehicle id="199" depart="1324.0">
        <route edges="e_t t_s s_t t_e"/>
    </vehicle>
    <vehicle id="200" depart="1331.0">
        <route edges="s_t t_e e_t t_s"/>
    </vehicle>
    <vehicle id="201" depart="1334.0">
        <route edges="s_t t_n"/>
    </vehicle>
    <vehicle id="202" depart="1340.0">
        <route edges="w_t t_n"/>
    </vehicle>
    <vehicle id="203" depart="1340.0">
        <route edges="w_t t_n"/>
    </vehicle>
    <vehicle id="204" depart="1343.0">
        <route edges="n_t t_e e_t t_n"/>
    </vehicle>
    <vehicle id="205" depart="1349.0">
        <route edges="s_t t_w"/>
    </vehicle>
    <vehicle id="206" depart="1351.0">
        <route edges="e_t t_s"/>
    </vehicle>
    <vehicle id="207" depart="1352.0">
        <route edges="s_t t_e e_t t_s"/>
    </vehicle>
    <vehicle id="208" depart="1355.0">
        <route edges="s_t t_e e_t t_s"/>
    </vehicle>
    <vehicle id="209" depart="1355.0">
        <route edges="s_t t_n"/>
    </vehicle>
    <vehicle id="210" depart="1357.0">
        <route edges="n_t t_e"/>
    </vehicle>
    <vehicle id="211" depart="1365.0">
        <route edges="w_t t_n n_t t_w"/>
    </vehicle>
    <vehicle id="212" depart="1366.0">
        <route edges="n_t t_w"/>
    </vehicle>
    <vehicle id="213" depart="1367.0">
        <route edges="w_t t_e"/>
    </vehicle>
    <vehicle id="214" depart="1368.0">
        <route edges="w_t t_n"/>
    </vehicle>
    <vehicle id="215" depart="1376.0">
        <route edges="n_t t_e e_t t_n"/>
    </vehicle>
    <vehicle id="216" depart="1377.0">
        <route edges="n_t t_e"/>
    </vehicle>
    <vehicle id="217" depart="1378.0">
        <route edges="e_t t_s s_t t_e"/>
    </vehicle>
    <vehicle id="218" depart="1387.0">
        <route edges="n_t t_e"/>
    </vehicle>
    <vehicle id="219" depart="1389.0">
        <route edges="e_t t_w"/>
    </vehicle>
    <vehicle id="220" depart="1397.0">
        <route edges="n_t t_e e_t t_n"/>
    </vehicle>
    <vehicle id="221" depart="1405.0">
        <route edges="s_t t_w"/>
    </vehicle>
    <vehicle id="222" depart="1405.0">
        <route edges="e_t t_s s_t t_e"/>
    </vehicle>
    <vehicle id="223" depart="1409.0">
        <route edges="w_t t_n n_t t_w"/>
    </vehicle>
    <vehicle id="224" depart="1420.0">
        <route edges="w_t t_s"/>
    </vehicle>
    <vehicle id="225" depart="1421.0">
        <route edges="n_t t_e"/>
    </vehicle>
    <vehicle id="226" depart="1422.0">
        <route edges="w_t t_n n_t t_w"/>
    </vehicle>
    <vehicle id="227" depart="1423.0">
        <route edges="s_t t_w"/>
    </vehicle>
    <vehicle id="228" depart="1437.0">
        <route edges="n_t t_s"/>
    </vehicle>
    <vehicle id="229" depart="1451.0">
        <route edges="w_t t_e"/>
    </vehicle>
    <vehicle id="230" depart="1452.0">
        <route edges="s_t t_e"/>
    </vehicle>
    <vehicle id="231" depart="1457.0">
        <route edges="w_t t_n n_t t_w"/>
    </vehicle>
    <vehicle id="232" depart="1457.0">
        <route edges="s_t t_n"/>
    </vehicle>
    <vehicle id="233" depart="1459.0">
        <route edges="e_t t_n"/>
    </vehicle>
    <vehicle id="234" depart="1459.0">
        <route edges="n_t t_e e_t t_n"/>
    </vehicle>
    <vehicle id="235" depart="1459.0">
        <route edges="e_t t_w"/>
    </vehicle>
    <vehicle id="236" depart="1460.0">
        <route edges="s_t t_e e_t t_s"/>
    </vehicle>
    <vehicle id="237" depart="1462.0">
        <route edges="w_t t_n n_t t_w"/>
    </vehicle>
    <vehicle id="238" depart="1463.0">
        <route edges="s_t t_e e_t t_s"/>
    </vehicle>
    <vehicle id="239" depart="1478.0">
        <route edges="w_t t_n"/>
    </vehicle>
    <vehicle id="240" depart="1478.0">
        <route edges="w_t t_e"/>
    </vehicle>
    <vehicle id="241" depart="1479.0">
        <route edges="w_t t_s"/>
    </vehicle>
    <vehicle id="242" depart="1489.0">
        <route edges="s_t t_w"/>
    </vehicle>
    <vehicle id="243" depart="1491.0">
        <route edges="e_t t_n"/>
    </vehicle>
    <vehicle id="244" depart="1501.0">
        <route edges="w_t t_s"/>
    </vehicle>
    <vehicle id="245" depart="1502.0">
        <route edges="s_t t_w"/>
    </vehicle>
    <vehicle id="246" depart="1509.0">
        <route edges="s_t t_w"/>
    </vehicle>
    <vehicle id="247" depart="1525.0">
        <route edges="s_t t_n"/>
    </vehicle>
    <vehicle id="248" depart="1525.0">
        <route edges="n_t t_e"/>
    </vehicle>
    <vehicle id="249" depart="1531.0">
        <route edges="e_t t_s s_t t_e"/>
    </vehicle>
    <vehicle id="250" depart="1543.0">
        <route edges="w_t t_e"/>
    </vehicle>
    <vehicle id="251" depart="1544.0">
        <route edges="s_t t_e"/>
    </vehicle>
    <vehicle id="252" depart="1545.0">
        <route edges="w_t t_s"/>
    </vehicle>
    <vehicle id="253" depart="1558.0">
        <route edges="e_t t_w"/>
    </vehicle>
    <vehicle id="254" depart="1562.0">
        <route edges="w_t t_n n_t t_w"/>
    </vehicle>
    <vehicle id="255" depart="1566.0">
        <route edges="e_t t_n"/>
    </vehicle>
    <vehicle id="256" depart="1569.0">
        <route edges="s_t t_n"/>
    </vehicle>
    <vehicle id="257" depart="1574.0">
        <route edges="s_t t_e e_t t_s"/>
    </vehicle>
    <vehicle id="258" depart="1576.0">
        <route edges="w_t t_n n_t t_w"/>
    </vehicle>
    <vehicle id="259" depart="1584.0">
        <route edges="w_t t_n"/>
    </vehicle>
    <vehicle id="260" depart="1590.0">
        <route edges="w_t t_n"/>
    </vehicle>
    <vehicle id="261" depart="1594.0">
        <route edges="e_t t_s s_t t_e"/>
    </vehicle>
    <vehicle id="262" depart="1602.0">
        <route edges="s_t t_n"/>
    </vehicle>
    <vehicle id="263" depart="1607.0">
        <route edges="e_t t_n"/>
    </vehicle>
    <vehicle id="264" depart="1608.0">
        <route edges="n_t t_e e_t t_n"/>
    </vehicle>
    <vehicle id="265" depart="1608.0">
        <route edges="s_t t_e e_t t_s"/>
    </vehicle>
    <vehicle id="266" depart="1610.0">
        <route edges="s_t t_w"/>
    </vehicle>
    <vehicle id="267" depart="1619.0">
        <route edges="w_t t_n"/>
    </vehicle>
    <vehicle id="268" depart="1620.0">
        <route edges="w_t t_n"/>
    </vehicle>
    <vehicle id="269" depart="1620.0">
        <route edges="w_t t_e"/>
    </vehicle>
    <vehicle id="270" depart="1633.0">
        <route edges="n_t t_w"/>
    </vehicle>
    <vehicle id="271" depart="1640.0">
        <route edges="s_t t_e e_t t_s"/>
    </vehicle>
    <vehicle id="272" depart="1643.0">
        <route edges="e_t t_s s_t t_e"/>
    </vehicle>
    <vehicle id="273" depart="1651.0">
        <route edges="w_t t_e"/>
    </vehicle>
    <vehicle id="274" depart="1662.0">
        <route edges="e_t t_n"/>
    </vehicle>
    <vehicle id="275" depart="1667.0">
        <route edges="w_t t_s"/>
    </vehicle>
    <vehicle id="276" depart="1672.0">
        <route edges="w_t t_n n_t t_w"/>
    </vehicle>
    <vehicle id="277" depart="1676.0">
        <route edges="n_t t_w"/>
    </vehicle>
    <vehicle id="278" depart="1679.0">
        <route edges="n_t t_e"/>
    </vehicle>
    <vehicle id="279" depart="1681.0">
        <route edges="w_t t_n n_t t_w"/>
    </vehicle>
    <vehicle id="280" depart="1684.0">
        <route edges="s_t t_n"/>
    </vehicle>
    <vehicle id="281" depart="1685.0">
        <route edges="e_t t_s s_t t_e"/>
    </vehicle>
    <vehicle id="282" depart="1688.0">
        <route edges="e_t t_s s_t t_e"/>
    </vehicle>
    <vehicle id="283" depart="1692.0">
        <route edges="n_t t_w"/>
    </vehicle>
    <vehicle id="284" depart="1692.0">
        <route edges="w_t t_s"/>
    </vehicle>
    <vehicle id="285" depart="1693.0">
        <route edges="s_t t_n"/>
    </vehicle>
    <vehicle id="286" depart="1697.0">
        <route edges="w_t t_s"/>
    </vehicle>
    <vehicle id="287" depart="1698.0">
        <route edges="w_t t_n n_t t_w"/>
    </vehicle>
    <vehicle id="288" depart="1700.0">
        <route edges="s_t t_e e_t t_s"/>
    </vehicle>
    <vehicle id="289" depart="1702.0">
        <route edges="e_t t_n"/>
    </vehicle>
    <vehicle id="290" depart="1704.0">
        <route edges="n_t t_e"/>
    </vehicle>
    <vehicle id="291" depart="1704.0">
        <route edges="e_t t_n"/>
    </vehicle>
    <vehicle id="292" depart="1706.0">
        <route edges="e_t t_s"/>
    </vehicle>
    <vehicle id="293" depart="1718.0">
        <route edges="n_t t_w"/>
    </vehicle>
    <vehicle id="294" depart="1726.0">
        <route edges="s_t t_e e_t t_s"/>
    </vehicle>
    <vehicle id="295" depart="1728.0">
        <route edges="n_t t_e e_t t_n"/>
    </vehicle>
    <vehicle id="296" depart="1733.0">
        <route edges="e_t t_w"/>
    </vehicle>
    <vehicle id="297" depart="1736.0">
        <route edges="w_t t_s"/>
    </vehicle>
    <vehicle id="298" depart="1740.0">
        <route edges="s_t t_e"/>
    </vehicle>
    <vehicle id="299" depart="1743.0">
        <route edges="s_t t_e"/>
    </vehicle>
    <vehicle id="300" depart="1747.0">
        <route edges="n_t t_s"/>
    </vehicle>
    <vehicle id="301" depart="1753.0">
        <route edges="e_t t_s s_t t_e"/>
    </vehicle>
    <vehicle id="302" depart="1760.0">
        <route edges="s_t t_n"/>
    </vehicle>
    <vehicle id="303" depart="1765.0">
        <route edges="w_t t_e"/>
    </vehicle>
    <vehicle id="304" depart="1767.0">
        <route edges="e_t t_w"/>
    </vehicle>
    <vehicle id="305" depart="1768.0">
        <route edges="s_t t_e e_t t_s"/>
    </vehicle>
    <vehicle id="306" depart="1784.0">
        <route edges="s_t t_e"/>
    </vehicle>
    <vehicle id="307" depart="1786.0">
        <route edges="w_t t_n"/>
    </vehicle>
    <vehicle id="308" depart="1788.0">
        <route edges="w_t t_e"/>
    </vehicle>
    <vehicle id="309" depart="1789.0">
        <route edges="n_t t_s"/>
    </vehicle>
    <vehicle id="310" depart="1792.0">
        <route edges="e_t t_w"/>
    </vehicle>
    <vehicle id="311" depart="1802.0">
        <route edges="n_t t_e"/>
    </vehicle>
    <vehicle id="312" depart="1807.0">
        <route edges="e_t t_n"/>
    </vehicle>
    <vehicle id="313" depart="1812.0">
        <route edges="w_t t_n n_t t_w"/>
    </vehicle>
    <vehicle id="314" depart="1817.0">
        <route edges="s_t t_n"/>
    </vehicle>
    <vehicle id="315" depart="1823.0">
        <route edges="e_t t_w"/>
    </vehicle>
    <vehicle id="316" depart="1826.0">
        <route edges="e_t t_s s_t t_e"/>
    </vehicle>
    <vehicle id="317" depart="1829.0">
        <route edges="n_t t_w"/>
    </vehicle>
    <vehicle id="318" depart="1830.0">
        <route edges="e_t t_s s_t t_e"/>
    </vehicle>
    <vehicle id="319" depart="1830.0">
        <route edges="w_t t_e"/>
    </vehicle>
    <vehicle id="320" depart="1842.0">
        <route edges="s_t t_e"/>
    </vehicle>
    <vehicle id="321" depart="1849.0">
        <route edges="n_t t_e"/>
    </vehicle>
    <vehicle id="322" depart="1852.0">
        <route edges="n_t t_w"/>
    </vehicle>
    <vehicle id="323" depart="1852.0">
        <route edges="w_t t_s"/>
    </vehicle>
    <vehicle id="324" depart="1855.0">