<?xml version="1.0" encoding="UTF-8"?>

<!-- generated on 2023-06-30 22:42:30.862144 by randomTrips.py UNKNOWN
<configuration>
    <net-file value="nets/2way-single-intersection/single-intersection.net.xml"/>
    <route-file value="training/routes/2x2_tr_ep5.rou.xml"/>
    <seed value="5"/>
    <validate value="True"/>
    <end value="500.0"/>
</configuration>
-->

<!-- generated on 2023-06-30 22:42:30 by Eclipse SUMO duarouter Version v1_17_0+1256-16eabe86c67
<configuration xmlns:xsi="http://www.w3.org/2001/XMLSchema-instance" xsi:noNamespaceSchemaLocation="http://sumo.dlr.de/xsd/duarouterConfiguration.xsd">

    <input>
        <net-file value="nets/2way-single-intersection/single-intersection.net.xml"/>
        <route-files value="trips.trips.xml"/>
    </input>

    <output>
        <output-file value="training/routes/2x2_tr_ep5.rou.xml"/>
        <alternatives-output value="NUL"/>
    </output>

    <time>
        <begin value="0"/>
        <end value="500.0"/>
    </time>

    <report>
        <no-warnings value="true"/>
        <ignore-errors value="true"/>
        <no-step-log value="true"/>
    </report>

</configuration>
-->

<routes xmlns:xsi="http://www.w3.org/2001/XMLSchema-instance" xsi:noNamespaceSchemaLocation="http://sumo.dlr.de/xsd/routes_file.xsd">
    <vehicle id="0" depart="109.0">
        <route edges="s_t t_e e_t t_s"/>
    </vehicle>
    <vehicle id="1" depart="127.0">
        <route edges="w_t t_n n_t t_w"/>
    </vehicle>
    <vehicle id="2" depart="143.0">
        <route edges="s_t t_w"/>
    </vehicle>
    <vehicle id="3" depart="145.0">
        <route edges="e_t t_n"/>
    </vehicle>
    <vehicle id="4" depart="159.0">
        <route edges="w_t t_s"/>
    </vehicle>
    <vehicle id="5" depart="164.0">
        <route edges="w_t t_e"/>
    </vehicle>
    <vehicle id="6" depart="183.0">
        <route edges="n_t t_e"/>
    </vehicle>
    <vehicle id="7" depart="191.0">
        <route edges="s_t t_e e_t t_s"/>
    </vehicle>
    <vehicle id="8" depart="192.0">
        <route edges="e_t t_s s_t t_e"/>
    </vehicle>
    <vehicle id="9" depart="196.0">
        <route edges="n_t t_w"/>
    </vehicle>
    <vehicle id="10" depart="210.0">
        <route edges="w_t t_e"/>
    </vehicle>
    <vehicle id="11" depart="213.0">
        <route edges="w_t t_e"/>
    </vehicle>
    <vehicle id="12" depart="253.0">
        <route edges="s_t t_e"/>
    </vehicle>
    <vehicle id="13" depart="271.0">
        <route edges="e_t t_w"/>
    </vehicle>
    <vehicle id="14" depart="277.0">
        <route edges="e_t t_s s_t t_e"/>
    </vehicle>
    <vehicle id="15" depart="285.0">
        <route edges="w_t t_n n_t t_w"/>
    </vehicle>
    <vehicle id="16" depart="294.0">
        <route edges="n_t t_w"/>
    </vehicle>
    <vehicle id="17" depart="306.0">
        <route edges="s_t t_e e_t t_s"/>
    </vehicle>
    <vehicle id="18" depart="328.0">
        <route edges="e_t t_w"/>
    </vehicle>
    <vehicle id="19" depart="329.0">
        <route edges="s_t t_w"/>
    </vehicle>
    <vehicle id="20" depart="338.0">
        <route edges="w_t t_n"/>
    </vehicle>
    <vehicle id="21" depart="341.0">
        <route edges="n_t t_e"/>
    </vehicle>
    <vehicle id="22" depart="354.0">
        <route edges="e_t t_s s_t t_e"/>
    </vehicle>
    <vehicle id="23" depart="362.0">
        <route edges="n_t t_s"/>
    </vehicle>
    <vehicle id="24" depart="367.0">
        <route edges="e_t t_s"/>
    </vehicle>
    <vehicle id="25" depart="395.0">
        <route edges="n_t t_e e_t t_n"/>
    </vehicle>
    <vehicle id="26" depart="397.0">
        <route edges="w_t t_n"/>
    </vehicle>
    <vehicle id="27" depart="402.0">
        <route edges="n_t t_e e_t t_n"/>
    </vehicle>
    <vehicle id="28" depart="415.0">
        <route edges="s_t t_e"/>
    </vehicle>
    <vehicle id="29" depart="415.0">
        <route edges="w_t t_e"/>
    </vehicle>
    <vehicle id="30" depart="420.0">
        <route edges="s_t t_w"/>
    </vehicle>
    <vehicle id="31" depart="422.0">
        <route edges="e_t t_w"/>
    </vehicle>
    <vehicle id="32" depart="427.0">
        <route edges="n_t t_s"/>
    </vehicle>
    <vehicle id="33" depart="436.0">
        <route edges="e_t t_s s_t t_e"/>
    </vehicle>
    <vehicle id="34" depart="440.0">
        <route edges="e_t t_w"/>
    </vehicle>
    <vehicle id="35" depart="444.0">
        <route edges="e_t t_w"/>
    </vehicle>
    <vehicle id="36" depart="448.0">
        <route edges="w_t t_n n_t t_w"/>
    </vehicle>
    <vehicle id="37" depart="450.0">
        <route edges="n_t t_e e_t t_n"/>
    </vehicle>
    <vehicle id="38" depart="459.0">
        <route edges="s_t t_w"/>
    </vehicle>
    <vehicle id="39" depart="490.0">
        <route edges="e_t t_s"/>
    </vehicle>
    <vehicle id="40" depart="498.0">
        <route edges="w_t t_n n_t t_w"/>
    </vehicle>
    <vehicle id="41" depart="504.0">
        <route edges="e_t t_w"/>
    </vehicle>
    <vehicle id="42" depart="511.0">
        <route edges="e_t t_n"/>
    </vehicle>
    <vehicle id="43" depart="513.0">
        <route edges="s_t t_w"/>
    </vehicle>
    <vehicle id="44" depart="520.0">
        <route edges="n_t t_w"/>
    </vehicle>
    <vehicle id="45" depart="525.0">
        <route edges="s_t t_n"/>
    </vehicle>
    <vehicle id="46" depart="526.0">
        <route edges="n_t t_e"/>
    </vehicle>
    <vehicle id="47" depart="527.0">
        <route edges="e_t t_s s_t t_e"/>
    </vehicle>
    <vehicle id="48" depart="542.0">
        <route edges="s_t t_w"/>
    </vehicle>
    <vehicle id="49" depart="543.0">
        <route edges="e_t t_s s_t t_e"/>
    </vehicle>
    <vehicle id="50" depart="543.0">
        <route edges="w_t t_s"/>
    </vehicle>
    <vehicle id="51" depart="546.0">
        <route edges="n_t t_e"/>
    </vehicle>
    <vehicle id="52" depart="549.0">
        <route edges="s_t t_w"/>
    </vehicle>
    <vehicle id="53" depart="552.0">
        <route edges="n_t t_e e_t t_n"/>
    </vehicle>
    <vehicle id="54" depart="577.0">
        <route edges="e_t t_w"/>
    </vehicle>
    <vehicle id="55" depart="578.0">
        <route edges="e_t t_n"/>
    </vehicle>
    <vehicle id="56" depart="579.0">
        <route edges="w_t t_e"/>
    </vehicle>
    <vehicle id="57" depart="598.0">
        <route edges="s_t t_w"/>
    </vehicle>
    <vehicle id="58" depart="601.0">
        <route edges="s_t t_w"/>
    </vehicle>
    <vehicle id="59" depart="611.0">
        <route edges="e_t t_n"/>
    </vehicle>
    <vehicle id="60" depart="612.0">
        <route edges="e_t t_w"/>
    </vehicle>
    <vehicle id="61" depart="616.0">
        <route edges="n_t t_e e_t t_n"/>
    </vehicle>
    <vehicle id="62" depart="618.0">
        <route edges="w_t t_n n_t t_w"/>
    </vehicle>
    <vehicle id="63" depart="628.0">
        <route edges="w_t t_n"/>
    </vehicle>
    <vehicle id="64" depart="632.0">
        <route edges="n_t t_s"/>
    </vehicle>
    <vehicle id="65" depart="654.0">
        <route edges="n_t t_e e_t t_n"/>
    </vehicle>
    <vehicle id="66" depart="656.0">
        <route edges="n_t t_e"/>
    </vehicle>
    <vehicle id="67" depart="661.0">
        <route edges="n_t t_w"/>
    </vehicle>
    <vehicle id="68" depart="675.0">
        <route edges="w_t t_s"/>
    </vehicle>
    <vehicle id="69" depart="677.0">
        <route edges="n_t t_e e_t t_n"/>
    </vehicle>
    <vehicle id="70" depart="682.0">
        <route edges="e_t t_n"/>
    </vehicle>
    <vehicle id="71" depart="690.0">
        <route edges="w_t t_n n_t t_w"/>
    </vehicle>
    <vehicle id="72" depart="696.0">
        <route edges="n_t t_w"/>
    </vehicle>
    <vehicle id="73" depart="700.0">
        <route edges="w_t t_s"/>
    </vehicle>
    <vehicle id="74" depart="706.0">
        <route edges="s_t t_w"/>
    </vehicle>
    <vehicle id="75" depart="707.0">
        <route edges="n_t t_s"/>
    </vehicle>
    <vehicle id="76" depart="708.0">
        <route edges="n_t t_e e_t t_n"/>
    </vehicle>
    <vehicle id="77" depart="709.0">
        <route edges="w_t t_s"/>
    </vehicle>
    <vehicle id="78" depart="709.0">
        <route edges="n_t t_w"/>
    </vehicle>
    <vehicle id="79" depart="710.0">
        <route edges="s_t t_e e_t t_s"/>
    </vehicle>
    <vehicle id="80" depart="710.0">
        <route edges="e_t t_s"/>
    </vehicle>
    <vehicle id="81" depart="710.0">
        <route edges="n_t t_s"/>
    </vehicle>
    <vehicle id="82" depart="715.0">
        <route edges="n_t t_w"/>
    </vehicle>
    <vehicle id="83" depart="721.0">
        <route edges="s_t t_w"/>
    </vehicle>
    <vehicle id="84" depart="727.0">
        <route edges="n_t t_s"/>
    </vehicle>
    <vehicle id="85" depart="735.0">
        <route edges="s_t t_w"/>
    </vehicle>
    <vehicle id="86" depart="738.0">
        <route edges="n_t t_w"/>
    </vehicle>
    <vehicle id="87" depart="739.0">
        <route edges="w_t t_s"/>
    </vehicle>
    <vehicle id="88" depart="741.0">
        <route edges="w_t t_n n_t t_w"/>
    </vehicle>
    <vehicle id="89" depart="756.0">
        <route edges="s_t t_e e_t t_s"/>
    </vehicle>
    <vehicle id="90" depart="759.0">
        <route edges="e_t t_w"/>
    </vehicle>
    <vehicle id="91" depart="765.0">
        <route edges="w_t t_n"/>
    </vehicle>
    <vehicle id="92" depart="771.0">
        <route edges="s_t t_e e_t t_s"/>
    </vehicle>
    <vehicle id="93" depart="771.0">
        <route edges="s_t t_e"/>
    </vehicle>
    <vehicle id="94" depart="772.0">
        <route edges="w_t t_s"/>
    </vehicle>
    <vehicle id="95" depart="773.0">
        <route edges="s_t t_n"/>
    </vehicle>
    <vehicle id="96" depart="787.0">
        <route edges="s_t t_w"/>
    </vehicle>
    <vehicle id="97" depart="793.0">
        <route edges="s_t t_e e_t t_s"/>
    </vehicle>
    <vehicle id="98" depart="796.0">
        <route edges="e_t t_s s_t t_e"/>
    </vehicle>
    <vehicle id="99" depart="806.0">
        <route edges="n_t t_s"/>
    </vehicle>
    <vehicle id="100" depart="808.0">
        <route edges="e_t t_s"/>
    </vehicle>
    <vehicle id="101" depart="818.0">
        <route edges="s_t t_e"/>
    </vehicle>
    <vehicle id="102" depart="820.0">
        <route edges="n_t t_e"/>
    </vehicle>
    <vehicle id="103" depart="833.0">
        <route edges="e_t t_s s_t t_e"/>
    </vehicle>
    <vehicle id="104" depart="833.0">
        <route edges="n_t t_e"/>
    </vehicle>
    <vehicle id="105" depart="841.0">
        <route edges="e_t t_s s_t t_e"/>
    </vehicle>
    <vehicle id="106" depart="852.0">
        <route edges="n_t t_e e_t t_n"/>
    </vehicle>
    <vehicle id="107" depart="858.0">
        <route edges="s_t t_e e_t t_s"/>
    </vehicle>
    <vehicle id="108" depart="863.0">
        <route edges="e_t t_w"/>
    </vehicle>
    <vehicle id="109" depart="864.0">
        <route edges="e_t t_n"/>
    </vehicle>
    <vehicle id="110" depart="873.0">
        <route edges="n_t t_e e_t t_n"/>
    </vehicle>
    <vehicle id="111" depart="879.0">
        <route edges="e_t t_w"/>
    </vehicle>
    <vehicle id="112" depart="883.0">
        <route edges="n_t t_e"/>
    </vehicle>
    <vehicle id="113" depart="887.0">
        <route edges="s_t t_e"/>
    </vehicle>
    <vehicle id="114" depart="890.0">
        <route edges="s_t t_n"/>
    </vehicle>
    <vehicle id="115" depart="891.0">
        <route edges="s_t t_w"/>
    </vehicle>
    <vehicle id="116" depart="896.0">
        <route edges="w_t t_n"/>
    </vehicle>
    <vehicle id="117" depart="897.0">
        <route edges="w_t t_s"/>
    </vehicle>
    <vehicle id="118" depart="901.0">
        <route edges="n_t t_e"/>
    </vehicle>
    <vehicle id="119" depart="906.0">
        <route edges="s_t t_e e_t t_s"/>
    </vehicle>
    <vehicle id="120" depart="908.0">
        <route edges="w_t t_n n_t t_w"/>
    </vehicle>
    <vehicle id="121" depart="913.0">
        <route edges="s_t t_n"/>
    </vehicle>
    <vehicle id="122" depart="913.0">
        <route edges="w_t t_e"/>
    </vehicle>
    <vehicle id="123" depart="913.0">
        <route edges="e_t t_s"/>
    </vehicle>
    <vehicle id="124" depart="917.0">
        <route edges="s_t t_e"/>
    </vehicle>
    <vehicle id="125" depart="919.0">
        <route edges="s_t t_w"/>
    </vehicle>
    <vehicle id="126" depart="929.0">
        <route edges="n_t t_e e_t t_n"/>
    </vehicle>
    <vehicle id="127" depart="933.0">
        <route edges="e_t t_n"/>
    </vehicle>
    <vehicle id="128" depart="935.0">
        <route edges="w_t t_n"/>
    </vehicle>
    <vehicle id="129" depart="936.0">
        <route edges="w_t t_n n_t t_w"/>
    </vehicle>
    <vehicle id="130" depart="940.0">
        <route edges="s_t t_n"/>
    </vehicle>
    <vehicle id="131" depart="941.0">
        <route edges="w_t t_n"/>
    </vehicle>
    <vehicle id="132" depart="945.0">
        <route edges="n_t t_e e_t t_n"/>
    </vehicle>
    <vehicle id="133" depart="951.0">
        <route edges="w_t t_n"/>
    </vehicle>
    <vehicle id="134" depart="951.0">
        <route edges="n_t t_e e_t t_n"/>
    </vehicle>
    <vehicle id="135" depart="956.0">
        <route edges="e_t t_s"/>
    </vehicle>
    <vehicle id="136" depart="956.0">
        <route edges="n_t t_e e_t t_n"/>
    </vehicle>
    <vehicle id="137" depart="969.0">
        <route edges="w_t t_n n_t t_w"/>
    </vehicle>
    <vehicle id="138" depart="974.0">
        <route edges="e_t t_s"/>
    </vehicle>
    <vehicle id="139" depart="979.0">
        <route edges="n_t t_w"/>
    </vehicle>
    <vehicle id="140" depart="988.0">
        <route edges="w_t t_e"/>
    </vehicle>
    <vehicle id="141" depart="991.0">
        <route edges="n_t t_e"/>
    </vehicle>
    <vehicle id="142" depart="995.0">
        <route edges="w_t t_n"/>
    </vehicle>
    <vehicle id="143" depart="997.0">
        <route edges="s_t t_n"/>
    </vehicle>
    <vehicle id="144" depart="998.0">
        <route edges="s_t t_e e_t t_s"/>
    </vehicle>
    <vehicle id="145" depart="1005.0">
        <route edges="s_t t_e"/>
    </vehicle>
    <vehicle id="146" depart="1005.0">
        <route edges="w_t t_n"/>
    </vehicle>
    <vehicle id="147" depart="1011.0">
        <route edges="s_t t_n"/>
    </vehicle>
    <vehicle id="148" depart="1014.0">
        <route edges="n_t t_s"/>
    </vehicle>
    <vehicle id="149" depart="1021.0">
        <route edges="n_t t_e e_t t_n"/>
    </vehicle>
    <vehicle id="150" depart="1022.0">
        <route edges="s_t t_e e_t t_s"/>
    </vehicle>
    <vehicle id="151" depart="1023.0">
        <route edges="e_t t_n"/>
    </vehicle>
    <vehicle id="152" depart="1023.0">
        <route edges="n_t t_w"/>
    </vehicle>
    <vehicle id="153" depart="1027.0">
        <route edges="w_t t_s"/>
    </vehicle>
    <vehicle id="154" depart="1032.0">
        <route edges="e_t t_w"/>
    </vehicle>
    <vehicle id="155" depart="1034.0">
        <route edges="n_t t_s"/>
    </vehicle>
    <vehicle id="156" depart="1039.0">
        <route edges="s_t t_e e_t t_s"/>
    </vehicle>
    <vehicle id="157" depart="1052.0">
        <route edges="n_t t_w"/>
    </vehicle>
    <vehicle id="158" depart="1061.0">
        <route edges="n_t t_e e_t t_n"/>
    </vehicle>
    <vehicle id="159" depart="1065.0">
        <route edges="w_t t_e"/>
    </vehicle>
    <vehicle id="160" depart="1068.0">
        <route edges="n_t t_w"/>
    </vehicle>
    <vehicle id="161" depart="1080.0">
        <route edges="e_t t_w"/>
    </vehicle>
    <vehicle id="162" depart="1083.0">
        <route edges="s_t t_n"/>
    </vehicle>
    <vehicle id="163" depart="1085.0">
        <route edges="n_t t_w"/>
    </vehicle>
    <vehicle id="164" depart="1097.0">
        <route edges="w_t t_e"/>
    </vehicle>
    <vehicle id="165" depart="1104.0">
        <route edges="n_t t_s"/>
    </vehicle>
    <vehicle id="166" depart="1116.0">
        <route edges="n_t t_e e_t t_n"/>
    </vehicle>
    <vehicle id="167" depart="1120.0">
        <route edges="e_t t_s"/>
    </vehicle>
    <vehicle id="168" depart="1131.0">
        <route edges="w_t t_e"/>
    </vehicle>
    <vehicle id="169" depart="1141.0">
        <route edges="e_t t_w"/>
    </vehicle>
    <vehicle id="170" depart="1143.0">
        <route edges="w_t t_s"/>
    </vehicle>
    <vehicle id="171" depart="1146.0">
        <route edges="e_t t_s"/>
    </vehicle>
    <vehicle id="172" depart="1147.0">
        <route edges="w_t t_n n_t t_w"/>
    </vehicle>
    <vehicle id="173" depart="1148.0">
        <route edges="s_t t_e"/>
    </vehicle>
    <vehicle id="174" depart="1155.0">
        <route edges="w_t t_e"/>
    </vehicle>
    <vehicle id="175" depart="1157.0">
        <route edges="s_t t_w"/>
    </vehicle>
    <vehicle id="176" depart="1162.0">
        <route edges="s_t t_e"/>
    </vehicle>
    <vehicle id="177" depart="1164.0">
        <route edges="n_t t_w"/>
    </vehicle>
    <vehicle id="178" depart="1165.0">
        <route edges="e_t t_s"/>
    </vehicle>
    <vehicle id="179" depart="1166.0">
        <route edges="n_t t_e"/>
    </vehicle>
    <vehicle id="180" depart="1174.0">
        <route edges="s_t t_e"/>
    </vehicle>
    <vehicle id="181" depart="1175.0">
        <route edges="e_t t_n"/>
    </vehicle>
    <vehicle id="182" depart="1182.0">
        <route edges="e_t t_s s_t t_e"/>
    </vehicle>
    <vehicle id="183" depart="1182.0">
        <route edges="s_t t_e e_t t_s"/>
    </vehicle>
    <vehicle id="184" depart="1186.0">
        <route edges="w_t t_e"/>
    </vehicle>
    <vehicle id="185" depart="1189.0">
        <route edges="n_t t_e e_t t_n"/>
    </vehicle>
    <vehicle id="186" depart="1195.0">
        <route edges="s_t t_n"/>
    </vehicle>
    <vehicle id="187" depart="1204.0">
        <route edges="w_t t_n"/>
    </vehicle>
    <vehicle id="188" depart="1204.0">
        <route edges="e_t t_s"/>
    </vehicle>
    <vehicle id="189" depart="1208.0">
        <route edges="e_t t_s"/>
    </vehicle>
    <vehicle id="190" depart="1208.0">
        <route edges="s_t t_w"/>
    </vehicle>
    <vehicle id="191" depart="1209.0">
        <route edges="s_t t_e e_t t_s"/>
    </vehicle>
    <vehicle id="192" depart="1215.0">
        <route edges="n_t t_s"/>
    </vehicle>
    <vehicle id="193" depart="1223.0">
        <route edges="n_t t_w"/>
    </vehicle>
    <vehicle id="194" depart="1225.0">
        <route edges="s_t t_e"/>
    </vehicle>
    <vehicle id="195" depart="1227.0">
        <route edges="e_t t_n"/>
    </vehicle>
    <vehicle id="196" depart="1227.0">
        <route edges="s_t t_e"/>
    </vehicle>
    <vehicle id="197" depart="1230.0">
        <route edges="s_t t_e e_t t_s"/>
    </vehicle>
    <vehicle id="198" depart="1235.0">
        <route edges="e_t t_s"/>
    </vehicle>
    <vehicle id="199" depart="1250.0">
        <route edges="e_t t_s s_t t_e"/>
    </vehicle>
    <vehicle id="200" depart="1254.0">
        <route edges="s_t t_e"/>
    </vehicle>
    <vehicle id="201" depart="1254.0">
        <route edges="w_t t_n"/>
    </vehicle>
    <vehicle id="202" depart="1255.0">
        <route edges="n_t t_w"/>
    </vehicle>
    <vehicle id="203" depart="1258.0">
        <route edges="e_t t_s"/>
    </vehicle>
    <vehicle id="204" depart="1260.0">
        <route edges="e_t t_s s_t t_e"/>
    </vehicle>
    <vehicle id="205" depart="1287.0">
        <route edges="w_t t_s"/>
    </vehicle>
    <vehicle id="206" depart="1294.0">
        <route edges="e_t t_s s_t t_e"/>
    </vehicle>
    <vehicle id="207" depart="1296.0">
        <route edges="w_t t_s"/>
    </vehicle>
    <vehicle id="208" depart="1299.0">
        <route edges="w_t t_e"/>
    </vehicle>
    <vehicle id="209" depart="1303.0">
        <route edges="s_t t_n"/>
    </vehicle>
    <vehicle id="210" depart="1304.0">
        <route edges="e_t t_n"/>
    </vehicle>
    <vehicle id="211" depart="1305.0">
        <route edges="s_t t_n"/>
    </vehicle>
    <vehicle id="212" depart="1307.0">
        <route edges="n_t t_e"/>
    </vehicle>
    <vehicle id="213" depart="1307.0">
        <route edges="w_t t_s"/>
    </vehicle>
    <vehicle id="214" depart="1307.0">
        <route edges="w_t t_n"/>
    </vehicle>
    <vehicle id="215" depart="1309.0">
        <route edges="w_t t_s"/>
    </vehicle>
    <vehicle id="216" depart="1311.0">
        <route edges="s_t t_e e_t t_s"/>
    </vehicle>
    <vehicle id="217" depart="1313.0">
        <route edges="s_t t_n"/>
    </vehicle>
    <vehicle id="218" depart="1314.0">
        <route edges="e_t t_s s_t t_e"/>
    </vehicle>
    <vehicle id="219" depart="1321.0">
        <route edges="e_t t_s s_t t_e"/>
    </vehicle>
    <vehicle id="220" depart="1323.0">
        <route edges="w_t t_n"/>
    </vehicle>
    <vehicle id="221" depart="1342.0">
        <route edges="w_t t_e"/>
    </vehicle>
    <vehicle id="222" depart="1348.0">
        <route edges="n_t t_w"/>
    </vehicle>
    <vehicle id="223" depart="1352.0">
        <route edges="s_t t_n"/>
    </vehicle>
    <vehicle id="224" depart="1357.0">
        <route edges="n_t t_e"/>
    </vehicle>
    <vehicle id="225" depart="1357.0">
        <route edges="e_t t_s s_t t_e"/>
    </vehicle>
    <vehicle id="226" depart="1359.0">
        <route edges="n_t t_e e_t t_n"/>
    </vehicle>
    <vehicle id="227" depart="1360.0">
        <route edges="w_t t_e"/>
    </vehicle>
    <vehicle id="228" depart="1368.0">
        <route edges="n_t t_e e_t t_n"/>
    </vehicle>
    <vehicle id="229" depart="1370.0">
        <route edges="e_t t_n"/>
    </vehicle>
    <vehicle id="230" depart="1371.0">
        <route edges="e_t t_n"/>
    </vehicle>
    <vehicle id="231" depart="1380.0">
        <route edges="e_t t_w"/>
    </vehicle>
    <vehicle id="232" depart="1380.0">
        <route edges="n_t t_w"/>
    </vehicle>
    <vehicle id="233" depart="1381.0">
        <route edges="s_t t_e e_t t_s"/>
    </vehicle>
    <vehicle id="234" depart="1391.0">
        <route edges="n_t t_w"/>
    </vehicle>
    <vehicle id="235" depart="1396.0">
        <route edges="e_t t_s"/>
    </vehicle>
    <vehicle id="236" depart="1401.0">
        <route edges="n_t t_s"/>
    </vehicle>
    <vehicle id="237" depart="1409.0">
        <route edges="s_t t_e"/>
    </vehicle>
    <vehicle id="238" depart="1409.0">
        <route edges="e_t t_s s_t t_e"/>
    </vehicle>
    <vehicle id="239" depart="1420.0">
        <route edges="e_t t_s s_t t_e"/>
    </vehicle>
    <vehicle id="240" depart="1424.0">
        <route edges="n_t t_w"/>
    </vehicle>
    <vehicle id="241" depart="1428.0">
        <route edges="n_t t_e e_t t_n"/>
    </vehicle>
    <vehicle id="242" depart="1429.0">
        <route edges="n_t t_e e_t t_n"/>
    </vehicle>
    <vehicle id="243" depart="1434.0">
        <route edges="s_t t_e e_t t_s"/>
    </vehicle>
    <vehicle id="244" depart="1440.0">
        <route edges="e_t t_s s_t t_e"/>
    </vehicle>
    <vehicle id="245" depart="1441.0">
        <route edges="s_t t_w"/>
    </vehicle>
    <vehicle id="246" depart="1447.0">
        <route edges="s_t t_n"/>
    </vehicle>
    <vehicle id="247" depart="1455.0">
        <route edges="w_t t_e"/>
    </vehicle>
    <vehicle id="248" depart="1462.0">
        <route edges="e_t t_w"/>
    </vehicle>
    <vehicle id="249" depart="1470.0">
        <route edges="n_t t_e"/>
    </vehicle>
    <vehicle id="250" depart="1472.0">
        <route edges="s_t t_w"/>
    </vehicle>
    <vehicle id="251" depart="1478.0">
        <route edges="s_t t_n"/>
    </vehicle>
    <vehicle id="252" depart="1479.0">
        <route edges="e_t t_s s_t t_e"/>
    </vehicle>
    <vehicle id="253" depart="1480.0">
        <route edges="w_t t_n"/>
    </vehicle>
    <vehicle id="254" depart="1481.0">
        <route edges="w_t t_e"/>
    </vehicle>
    <vehicle id="255" depart="1482.0">
        <route edges="e_t t_s s_t t_e"/>
    </vehicle>
    <vehicle id="256" depart="1485.0">
        <route edges="n_t t_e"/>
    </vehicle>
    <vehicle id="257" depart="1495.0">
        <route edges="n_t t_e e_t t_n"/>
    </vehicle>
    <vehicle id="258" depart="1498.0">
        <route edges="n_t t_e"/>
    </vehicle>
    <vehicle id="259" depart="1499.0">
        <route edges="e_t t_w"/>
    </vehicle>
    <vehicle id="260" depart="1512.0">
        <route edges="e_t t_s"/>
    </vehicle>
    <vehicle id="261" depart="1520.0">
        <route edges="n_t t_s"/>
    </vehicle>
    <vehicle id="262" depart="1526.0">
        <route edges="e_t t_n"/>
    </vehicle>
    <vehicle id="263" depart="1529.0">
        <route edges="e_t t_s"/>
    </vehicle>
    <vehicle id="264" depart="1530.0">
        <route edges="w_t t_s"/>
    </vehicle>
    <vehicle id="265" depart="1531.0">
        <route edges="w_t t_e"/>
    </vehicle>
    <vehicle id="266" depart="1536.0">
        <route edges="e_t t_s"/>
    </vehicle>
    <vehicle id="267" depart="1543.0">
        <route edges="n_t t_s"/>
    </vehicle>
    <vehicle id="268" depart="1545.0">
        <route edges="n_t t_s"/>
    </vehicle>
    <vehicle id="269" depart="1547.0">
        <route edges="s_t t_w"/>
    </vehicle>
    <vehicle id="270" depart="1548.0">
        <route edges="n_t t_e e_t t_n"/>
    </vehicle>
    <vehicle id="271" depart="1562.0">
        <route edges="w_t t_e"/>
    </vehicle>
    <vehicle id="272" depart="1564.0">
        <route edges="e_t t_n"/>
    </vehicle>
    <vehicle id="273" depart="1565.0">
        <route edges="e_t t_w"/>
    </vehicle>
    <vehicle id="274" depart="1566.0">
        <route edges="w_t t_n"/>
    </vehicle>
    <vehicle id="275" depart="1567.0">
        <route edges="e_t t_s s_t t_e"/>
    </vehicle>
    <vehicle id="276" depart="1571.0">
        <route edges="e_t t_s s_t t_e"/>
    </vehicle>
    <vehicle id="277" depart="1575.0">
        <route edges="n_t t_s"/>
    </vehicle>
    <vehicle id="278" depart="1583.0">
        <route edges="e_t t_s s_t t_e"/>
    </vehicle>
    <vehicle id="279" depart="1590.0">
        <route edges="s_t t_e"/>
    </vehicle>
    <vehicle id="280" depart="1600.0">
        <route edges="e_t t_n"/>
    </vehicle>
    <vehicle id="281" depart="1600.0">
        <route edges="n_t t_e"/>
    </vehicle>
    <vehicle id="282" depart="1606.0">
        <route edges="n_t t_e e_t t_n"/>
    </vehicle>
    <vehicle id="283" depart="1606.0">
        <route edges="w_t t_s"/>
    </vehicle>
    <vehicle id="284" depart="1609.0">
        <route edges="w_t t_s"/>
    </vehicle>
    <vehicle id="285" depart="1612.0">
        <route edges="w_t t_s"/>
    </vehicle>
    <vehicle id="286" depart="1614.0">
        <route edges="n_t t_w"/>
    </vehicle>
    <vehicle id="287" depart="1622.0">
        <route edges="s_t t_w"/>
    </vehicle>
    <vehicle id="288" depart="1624.0">
        <route edges="s_t t_e e_t t_s"/>
    </vehicle>
    <vehicle id="289" depart="1624.0">
        <route edges="n_t t_w"/>
    </vehicle>
    <vehicle id="290" depart="1627.0">
        <route edges="n_t t_e"/>
    </vehicle>
    <vehicle id="291" depart="1633.0">
        <route edges="e_t t_s s_t t_e"/>
    </vehicle>
    <vehicle id="292" depart="1635.0">
        <route edges="n_t t_s"/>
    </vehicle>
    <vehicle id="293" depart="1637.0">
        <route edges="n_t t_e"/>
    </vehicle>
    <vehicle id="294" depart="1644.0">
        <route edges="w_t t_s"/>
    </vehicle>
    <vehicle id="295" depart="1644.0">
        <route edges="e_t t_s s_t t_e"/>
    </vehicle>
    <vehicle id="296" depart="1645.0">
        <route edges="e_t t_n"/>
    </vehicle>
    <vehicle id="297" depart="1647.0">
        <route edges="w_t t_n n_t t_w"/>
    </vehicle>
    <vehicle id="298" depart="1653.0">
        <route edges="s_t t_e"/>
    </vehicle>
    <vehicle id="299" depart="1655.0">
        <route edges="n_t t_e e_t t_n"/>
    </vehicle>
    <vehicle id="300" depart="1659.0">
        <route edges="n_t t_e"/>
    </vehicle>
    <vehicle id="301" depart="1673.0">
        <route edges="s_t t_w"/>
    </vehicle>
    <vehicle id="302" depart="1679.0">
        <route edges="s_t t_e"/>
    </vehicle>
    <vehicle id="303" depart="1685.0">
        <route edges="s_t t_e"/>
    </vehicle>
    <vehicle id="304" depart="1691.0">
        <route edges="s_t t_n"/>
    </vehicle>
    <vehicle id="305" depart="1696.0">
        <route edges="w_t t_n n_t t_w"/>
    </vehicle>
    <vehicle id="306" depart="1703.0">
        <route edges="e_t t_n"/>
    </vehicle>
    <vehicle id="307" depart="1704.0">
        <route edges="w_t t_n"/>
    </vehicle>
    <vehicle id="308" depart="1713.0">
        <route edges="n_t t_e e_t t_n"/>
    </vehicle>
    <vehicle id="309" depart="1723.0">
        <route edges="w_t t_n n_t t_w"/>
    </vehicle>
    <vehicle id="310" depart="1726.0">
        <route edges="s_t t_w"/>
    </vehicle>
    <vehicle id="311" depart="1728.0">
        <route edges="s_t t_e"/>
    </vehicle>
    <vehicle id="312" depart="1732.0">
        <route edges="w_t t_n"/>
    </vehicle>
    <vehicle id="313" depart="1733.0">
        <route edges="e_t t_w"/>
    </vehicle>
    <vehicle id="314" depart="1740.0">
        <route edges="e_t t_s"/>
    </vehicle>
    <vehicle id="315" depart="1742.0">
        <route edges="n_t t_w"/>
    </vehicle>
    <vehicle id="316" depart="1749.0">
        <route edges="n_t t_e"/>
    </vehicle>
    <vehicle id="317" depart="1753.0">
        <route edges="n_t t_e"/>
    </vehicle>
    <vehicle id="318" depart="1761.0">
        <route edges="s_t t_n"/>
    </vehicle>
    <vehicle id="319" depart="1763.0">
        <route edges="w_t t_e"/>
    </vehicle>
    <vehicle id="320" depart="1766.0">
        <route edges="n_t t_e"/>
    </vehicle>
    <vehicle id="321" depart="1767.0">
        <route edges="w_t t_n n_t t_w"/>
    </vehicle>
    <vehicle id="322" depart="1774.0">
        <route edges="w_t t_s"/>
    </vehicle>
    <vehicle id="323" depart="1776.0">
        <route edges="n_t t_e"/>
    </vehicle>
    <vehicle id="324" depart="1778.0">
        <route edges="w_t t_n"/>