<?xml version="1.0" encoding="UTF-8"?>

<!-- generated on 2023-06-30 22:46:13.197566 by randomTrips.py UNKNOWN
<configuration>
    <net-file value="nets/2way-single-intersection/single-intersection.net.xml"/>
    <route-file value="training/routes/2x2_tr_ep18.rou.xml"/>
    <seed value="18"/>
    <validate value="True"/>
    <end value="500.0"/>
</configuration>
-->

<!-- generated on 2023-06-30 22:46:13 by Eclipse SUMO duarouter Version v1_17_0+1256-16eabe86c67
<configuration xmlns:xsi="http://www.w3.org/2001/XMLSchema-instance" xsi:noNamespaceSchemaLocation="http://sumo.dlr.de/xsd/duarouterConfiguration.xsd">

    <input>
        <net-file value="nets/2way-single-intersection/single-intersection.net.xml"/>
        <route-files value="trips.trips.xml"/>
    </input>

    <output>
        <output-file value="training/routes/2x2_tr_ep18.rou.xml"/>
        <alternatives-output value="NUL"/>
    </output>

    <time>
        <begin value="0"/>
        <end value="500.0"/>
    </time>

    <report>
        <no-warnings value="true"/>
        <ignore-errors value="true"/>
        <no-step-log value="true"/>
    </report>

</configuration>
-->

<routes xmlns:xsi="http://www.w3.org/2001/XMLSchema-instance" xsi:noNamespaceSchemaLocation="http://sumo.dlr.de/xsd/routes_file.xsd">
    <vehicle id="0" depart="89.0">
        <route edges="e_t t_s"/>
    </vehicle>
    <vehicle id="1" depart="97.0">
        <route edges="n_t t_e"/>
    </vehicle>
    <vehicle id="2" depart="127.0">
        <route edges="n_t t_e e_t t_n"/>
    </vehicle>
    <vehicle id="3" depart="149.0">
        <route edges="n_t t_e e_t t_n"/>
    </vehicle>
    <vehicle id="4" depart="150.0">
        <route edges="n_t t_e e_t t_n"/>
    </vehicle>
    <vehicle id="5" depart="167.0">
        <route edges="s_t t_n"/>
    </vehicle>
    <vehicle id="6" depart="190.0">
        <route edges="s_t t_w"/>
    </vehicle>
    <vehicle id="7" depart="202.0">
        <route edges="w_t t_n n_t t_w"/>
    </vehicle>
    <vehicle id="8" depart="208.0">
        <route edges="e_t t_s s_t t_e"/>
    </vehicle>
    <vehicle id="9" depart="211.0">
        <route edges="s_t t_e e_t t_s"/>
    </vehicle>
    <vehicle id="10" depart="212.0">
        <route edges="e_t t_s"/>
    </vehicle>
    <vehicle id="11" depart="224.0">
        <route edges="w_t t_n n_t t_w"/>
    </vehicle>
    <vehicle id="12" depart="224.0">
        <route edges="e_t t_n"/>
    </vehicle>
    <vehicle id="13" depart="235.0">
        <route edges="e_t t_w"/>
    </vehicle>
    <vehicle id="14" depart="239.0">
        <route edges="e_t t_s"/>
    </vehicle>
    <vehicle id="15" depart="243.0">
        <route edges="s_t t_e e_t t_s"/>
    </vehicle>
    <vehicle id="16" depart="260.0">
        <route edges="s_t t_w"/>
    </vehicle>
    <vehicle id="17" depart="275.0">
        <route edges="s_t t_n"/>
    </vehicle>
    <vehicle id="18" depart="312.0">
        <route edges="e_t t_n"/>
    </vehicle>
    <vehicle id="19" depart="330.0">
        <route edges="w_t t_e"/>
    </vehicle>
    <vehicle id="20" depart="346.0">
        <route edges="s_t t_e e_t t_s"/>
    </vehicle>
    <vehicle id="21" depart="346.0">
        <route edges="e_t t_s s_t t_e"/>
    </vehicle>
    <vehicle id="22" depart="363.0">
        <route edges="s_t t_n"/>
    </vehicle>
    <vehicle id="23" depart="364.0">
        <route edges="n_t t_e e_t t_n"/>
    </vehicle>
    <vehicle id="24" depart="371.0">
        <route edges="e_t t_s"/>
    </vehicle>
    <vehicle id="25" depart="373.0">
        <route edges="s_t t_e e_t t_s"/>
    </vehicle>
    <vehicle id="26" depart="382.0">
        <route edges="n_t t_w"/>
    </vehicle>
    <vehicle id="27" depart="388.0">
        <route edges="w_t t_s"/>
    </vehicle>
    <vehicle id="28" depart="392.0">
        <route edges="e_t t_s s_t t_e"/>
    </vehicle>
    <vehicle id="29" depart="399.0">
        <route edges="e_t t_s s_t t_e"/>
    </vehicle>
    <vehicle id="30" depart="410.0">
        <route edges="s_t t_e e_t t_s"/>
    </vehicle>
    <vehicle id="31" depart="411.0">
        <route edges="e_t t_w"/>
    </vehicle>
    <vehicle id="32" depart="416.0">
        <route edges="s_t t_w"/>
    </vehicle>
    <vehicle id="33" depart="421.0">
        <route edges="w_t t_s"/>
    </vehicle>
    <vehicle id="34" depart="434.0">
        <route edges="s_t t_w"/>
    </vehicle>
    <vehicle id="35" depart="455.0">
        <route edges="e_t t_s"/>
    </vehicle>
    <vehicle id="36" depart="457.0">
        <route edges="w_t t_n"/>
    </vehicle>
    <vehicle id="37" depart="470.0">
        <route edges="w_t t_e"/>
    </vehicle>
    <vehicle id="38" depart="472.0">
        <route edges="n_t t_e e_t t_n"/>
    </vehicle>
    <vehicle id="39" depart="493.0">
        <route edges="n_t t_s"/>
    </vehicle>
    <vehicle id="40" depart="494.0">
        <route edges="e_t t_n"/>
    </vehicle>
    <vehicle id="41" depart="507.0">
        <route edges="w_t t_n"/>
    </vehicle>
    <vehicle id="42" depart="521.0">
        <route edges="e_t t_w"/>
    </vehicle>
    <vehicle id="43" depart="522.0">
        <route edges="s_t t_e"/>
    </vehicle>
    <vehicle id="44" depart="524.0">
        <route edges="s_t t_e"/>
    </vehicle>
    <vehicle id="45" depart="524.0">
        <route edges="e_t t_s"/>
    </vehicle>
    <vehicle id="46" depart="528.0">
        <route edges="s_t t_n"/>
    </vehicle>
    <vehicle id="47" depart="534.0">
        <route edges="s_t t_e e_t t_s"/>
    </vehicle>
    <vehicle id="48" depart="540.0">
        <route edges="n_t t_e"/>
    </vehicle>
    <vehicle id="49" depart="544.0">
        <route edges="w_t t_n n_t t_w"/>
    </vehicle>
    <vehicle id="50" depart="581.0">
        <route edges="n_t t_e e_t t_n"/>
    </vehicle>
    <vehicle id="51" depart="583.0">
        <route edges="s_t t_n"/>
    </vehicle>
    <vehicle id="52" depart="586.0">
        <route edges="n_t t_w"/>
    </vehicle>
    <vehicle id="53" depart="595.0">
        <route edges="w_t t_e"/>
    </vehicle>
    <vehicle id="54" depart="623.0">
        <route edges="e_t t_w"/>
    </vehicle>
    <vehicle id="55" depart="623.0">
        <route edges="w_t t_s"/>
    </vehicle>
    <vehicle id="56" depart="623.0">
        <route edges="n_t t_e"/>
    </vehicle>
    <vehicle id="57" depart="632.0">
        <route edges="w_t t_n n_t t_w"/>
    </vehicle>
    <vehicle id="58" depart="641.0">
        <route edges="w_t t_s"/>
    </vehicle>
    <vehicle id="59" depart="643.0">
        <route edges="w_t t_s"/>
    </vehicle>
    <vehicle id="60" depart="644.0">
        <route edges="w_t t_n"/>
    </vehicle>
    <vehicle id="61" depart="651.0">
        <route edges="e_t t_w"/>
    </vehicle>
    <vehicle id="62" depart="653.0">
        <route edges="s_t t_w"/>
    </vehicle>
    <vehicle id="63" depart="654.0">
        <route edges="e_t t_n"/>
    </vehicle>
    <vehicle id="64" depart="657.0">
        <route edges="s_t t_e"/>
    </vehicle>
    <vehicle id="65" depart="661.0">
        <route edges="n_t t_s"/>
    </vehicle>
    <vehicle id="66" depart="662.0">
        <route edges="w_t t_s"/>
    </vehicle>
    <vehicle id="67" depart="662.0">
        <route edges="n_t t_e e_t t_n"/>
    </vehicle>
    <vehicle id="68" depart="669.0">
        <route edges="s_t t_e e_t t_s"/>
    </vehicle>
    <vehicle id="69" depart="669.0">
        <route edges="w_t t_e"/>
    </vehicle>
    <vehicle id="70" depart="689.0">
        <route edges="w_t t_n n_t t_w"/>
    </vehicle>
    <vehicle id="71" depart="690.0">
        <route edges="e_t t_n"/>
    </vehicle>
    <vehicle id="72" depart="696.0">
        <route edges="n_t t_e"/>
    </vehicle>
    <vehicle id="73" depart="696.0">
        <route edges="e_t t_s s_t t_e"/>
    </vehicle>
    <vehicle id="74" depart="712.0">
        <route edges="s_t t_n"/>
    </vehicle>
    <vehicle id="75" depart="715.0">
        <route edges="e_t t_w"/>
    </vehicle>
    <vehicle id="76" depart="721.0">
        <route edges="w_t t_n"/>
    </vehicle>
    <vehicle id="77" depart="724.0">
        <route edges="w_t t_n n_t t_w"/>
    </vehicle>
    <vehicle id="78" depart="729.0">
        <route edges="s_t t_e"/>
    </vehicle>
    <vehicle id="79" depart="739.0">
        <route edges="s_t t_w"/>
    </vehicle>
    <vehicle id="80" depart="744.0">
        <route edges="w_t t_n n_t t_w"/>
    </vehicle>
    <vehicle id="81" depart="750.0">
        <route edges="e_t t_w"/>
    </vehicle>
    <vehicle id="82" depart="750.0">
        <route edges="e_t t_n"/>
    </vehicle>
    <vehicle id="83" depart="786.0">
        <route edges="s_t t_e e_t t_s"/>
    </vehicle>
    <vehicle id="84" depart="787.0">
        <route edges="s_t t_w"/>
    </vehicle>
    <vehicle id="85" depart="789.0">
        <route edges="w_t t_n n_t t_w"/>
    </vehicle>
    <vehicle id="86" depart="794.0">
        <route edges="s_t t_n"/>
    </vehicle>
    <vehicle id="87" depart="804.0">
        <route edges="e_t t_s"/>
    </vehicle>
    <vehicle id="88" depart="806.0">
        <route edges="w_t t_e"/>
    </vehicle>
    <vehicle id="89" depart="808.0">
        <route edges="w_t t_e"/>
    </vehicle>
    <vehicle id="90" depart="809.0">
        <route edges="n_t t_w"/>
    </vehicle>
    <vehicle id="91" depart="815.0">
        <route edges="s_t t_e e_t t_s"/>
    </vehicle>
    <vehicle id="92" depart="826.0">
        <route edges="n_t t_e"/>
    </vehicle>
    <vehicle id="93" depart="829.0">
        <route edges="e_t t_s"/>
    </vehicle>
    <vehicle id="94" depart="835.0">
        <route edges="e_t t_s s_t t_e"/>
    </vehicle>
    <vehicle id="95" depart="838.0">
        <route edges="s_t t_n"/>
    </vehicle>
    <vehicle id="96" depart="840.0">
        <route edges="e_t t_n"/>
    </vehicle>
    <vehicle id="97" depart="851.0">
        <route edges="w_t t_s"/>
    </vehicle>
    <vehicle id="98" depart="851.0">
        <route edges="n_t t_e"/>
    </vehicle>
    <vehicle id="99" depart="854.0">
        <route edges="n_t t_e"/>
    </vehicle>
    <vehicle id="100" depart="869.0">
        <route edges="n_t t_e"/>
    </vehicle>
    <vehicle id="101" depart="877.0">
        <route edges="s_t t_w"/>
    </vehicle>
    <vehicle id="102" depart="879.0">
        <route edges="s_t t_e e_t t_s"/>
    </vehicle>
    <vehicle id="103" depart="881.0">
        <route edges="n_t t_w"/>
    </vehicle>
    <vehicle id="104" depart="883.0">
        <route edges="n_t t_w"/>
    </vehicle>
    <vehicle id="105" depart="884.0">
        <route edges="e_t t_s"/>
    </vehicle>
    <vehicle id="106" depart="915.0">
        <route edges="w_t t_s"/>
    </vehicle>
    <vehicle id="107" depart="917.0">
        <route edges="e_t t_s s_t t_e"/>
    </vehicle>
    <vehicle id="108" depart="918.0">
        <route edges="w_t t_n n_t t_w"/>
    </vehicle>
    <vehicle id="109" depart="920.0">
        <route edges="e_t t_n"/>
    </vehicle>
    <vehicle id="110" depart="924.0">
        <route edges="w_t t_n n_t t_w"/>
    </vehicle>
    <vehicle id="111" depart="925.0">
        <route edges="e_t t_s"/>
    </vehicle>
    <vehicle id="112" depart="928.0">
        <route edges="e_t t_s s_t t_e"/>
    </vehicle>
    <vehicle id="113" depart="935.0">
        <route edges="s_t t_n"/>
    </vehicle>
    <vehicle id="114" depart="940.0">
        <route edges="e_t t_w"/>
    </vehicle>
    <vehicle id="115" depart="941.0">
        <route edges="n_t t_e e_t t_n"/>
    </vehicle>
    <vehicle id="116" depart="942.0">
        <route edges="n_t t_e"/>
    </vehicle>
    <vehicle id="117" depart="944.0">
        <route edges="w_t t_n"/>
    </vehicle>
    <vehicle id="118" depart="945.0">
        <route edges="w_t t_s"/>
    </vehicle>
    <vehicle id="119" depart="948.0">
        <route edges="s_t t_w"/>
    </vehicle>
    <vehicle id="120" depart="954.0">
        <route edges="n_t t_e"/>
    </vehicle>
    <vehicle id="121" depart="955.0">
        <route edges="s_t t_e"/>
    </vehicle>
    <vehicle id="122" depart="956.0">
        <route edges="w_t t_n n_t t_w"/>
    </vehicle>
    <vehicle id="123" depart="969.0">
        <route edges="n_t t_e"/>
    </vehicle>
    <vehicle id="124" depart="969.0">
        <route edges="w_t t_n"/>
    </vehicle>
    <vehicle id="125" depart="983.0">
        <route edges="w_t t_n"/>
    </vehicle>
    <vehicle id="126" depart="986.0">
        <route edges="w_t t_n n_t t_w"/>
    </vehicle>
    <vehicle id="127" depart="987.0">
        <route edges="e_t t_n"/>
    </vehicle>
    <vehicle id="128" depart="991.0">
        <route edges="n_t t_e"/>
    </vehicle>
    <vehicle id="129" depart="992.0">
        <route edges="w_t t_e"/>
    </vehicle>
    <vehicle id="130" depart="997.0">
        <route edges="e_t t_s s_t t_e"/>
    </vehicle>
    <vehicle id="131" depart="1002.0">
        <route edges="e_t t_w"/>
    </vehicle>
    <vehicle id="132" depart="1004.0">
        <route edges="e_t t_s"/>
    </vehicle>
    <vehicle id="133" depart="1022.0">
        <route edges="e_t t_w"/>
    </vehicle>
    <vehicle id="134" depart="1022.0">
        <route edges="w_t t_n n_t t_w"/>
    </vehicle>
    <vehicle id="135" depart="1025.0">
        <route edges="e_t t_s"/>
    </vehicle>
    <vehicle id="136" depart="1036.0">
        <route edges="s_t t_n"/>
    </vehicle>
    <vehicle id="137" depart="1050.0">
        <route edges="s_t t_n"/>
    </vehicle>
    <vehicle id="138" depart="1054.0">
        <route edges="s_t t_w"/>
    </vehicle>
    <vehicle id="139" depart="1065.0">
        <route edges="w_t t_n"/>
    </vehicle>
    <vehicle id="140" depart="1071.0">
        <route edges="n_t t_w"/>
    </vehicle>
    <vehicle id="141" depart="1074.0">
        <route edges="e_t t_n"/>
    </vehicle>
    <vehicle id="142" depart="1074.0">
        <route edges="n_t t_e e_t t_n"/>
    </vehicle>
    <vehicle id="143" depart="1074.0">
        <route edges="s_t t_e"/>
    </vehicle>
    <vehicle id="144" depart="1075.0">
        <route edges="n_t t_s"/>
    </vehicle>
    <vehicle id="145" depart="1075.0">
        <route edges="w_t t_n"/>
    </vehicle>
    <vehicle id="146" depart="1079.0">
        <route edges="e_t t_n"/>
    </vehicle>
    <vehicle id="147" depart="1090.0">
        <route edges="e_t t_s s_t t_e"/>
    </vehicle>
    <vehicle id="148" depart="1090.0">
        <route edges="n_t t_e e_t t_n"/>
    </vehicle>
    <vehicle id="149" depart="1100.0">
        <route edges="w_t t_n n_t t_w"/>
    </vehicle>
    <vehicle id="150" depart="1102.0">
        <route edges="w_t t_n"/>
    </vehicle>
    <vehicle id="151" depart="1103.0">
        <route edges="e_t t_s"/>
    </vehicle>
    <vehicle id="152" depart="1106.0">
        <route edges="s_t t_w"/>
    </vehicle>
    <vehicle id="153" depart="1109.0">
        <route edges="e_t t_w"/>
    </vehicle>
    <vehicle id="154" depart="1110.0">
        <route edges="w_t t_n"/>
    </vehicle>
    <vehicle id="155" depart="1112.0">
        <route edges="s_t t_e"/>
    </vehicle>
    <vehicle id="156" depart="1132.0">
        <route edges="s_t t_e"/>
    </vehicle>
    <vehicle id="157" depart="1133.0">
        <route edges="w_t t_n n_t t_w"/>
    </vehicle>
    <vehicle id="158" depart="1144.0">
        <route edges="w_t t_n n_t t_w"/>
    </vehicle>
    <vehicle id="159" depart="1148.0">
        <route edges="e_t t_w"/>
    </vehicle>
    <vehicle id="160" depart="1148.0">
        <route edges="s_t t_w"/>
    </vehicle>
    <vehicle id="161" depart="1161.0">
        <route edges="w_t t_n"/>
    </vehicle>
    <vehicle id="162" depart="1176.0">
        <route edges="w_t t_e"/>
    </vehicle>
    <vehicle id="163" depart="1177.0">
        <route edges="w_t t_s"/>
    </vehicle>
    <vehicle id="164" depart="1179.0">
        <route edges="w_t t_s"/>
    </vehicle>
    <vehicle id="165" depart="1188.0">
        <route edges="s_t t_e"/>
    </vehicle>
    <vehicle id="166" depart="1188.0">
        <route edges="w_t t_s"/>
    </vehicle>
    <vehicle id="167" depart="1190.0">
        <route edges="e_t t_w"/>
    </vehicle>
    <vehicle id="168" depart="1195.0">
        <route edges="s_t t_n"/>
    </vehicle>
    <vehicle id="169" depart="1198.0">
        <route edges="w_t t_n"/>
    </vehicle>
    <vehicle id="170" depart="1201.0">
        <route edges="s_t t_e e_t t_s"/>
    </vehicle>
    <vehicle id="171" depart="1202.0">
        <route edges="n_t t_e e_t t_n"/>
    </vehicle>
    <vehicle id="172" depart="1204.0">
        <route edges="s_t t_e"/>
    </vehicle>
    <vehicle id="173" depart="1221.0">
        <route edges="e_t t_n"/>
    </vehicle>
    <vehicle id="174" depart="1223.0">
        <route edges="s_t t_e"/>
    </vehicle>
    <vehicle id="175" depart="1225.0">
        <route edges="w_t t_n"/>
    </vehicle>
    <vehicle id="176" depart="1232.0">
        <route edges="w_t t_e"/>
    </vehicle>
    <vehicle id="177" depart="1233.0">
        <route edges="w_t t_n n_t t_w"/>
    </vehicle>
    <vehicle id="178" depart="1233.0">
        <route edges="w_t t_s"/>
    </vehicle>
    <vehicle id="179" depart="1236.0">
        <route edges="n_t t_w"/>
    </vehicle>
    <vehicle id="180" depart="1244.0">
        <route edges="e_t t_s"/>
    </vehicle>
    <vehicle id="181" depart="1253.0">
        <route edges="n_t t_e"/>
    </vehicle>
    <vehicle id="182" depart="1254.0">
        <route edges="n_t t_e e_t t_n"/>
    </vehicle>
    <vehicle id="183" depart="1261.0">
        <route edges="w_t t_e"/>
    </vehicle>
    <vehicle id="184" depart="1263.0">
        <route edges="w_t t_e"/>
    </vehicle>
    <vehicle id="185" depart="1263.0">
        <route edges="e_t t_s"/>
    </vehicle>
    <vehicle id="186" depart="1266.0">
        <route edges="w_t t_s"/>
    </vehicle>
    <vehicle id="187" depart="1266.0">
        <route edges="e_t t_w"/>
    </vehicle>
    <vehicle id="188" depart="1275.0">
        <route edges="s_t t_e"/>
    </vehicle>
    <vehicle id="189" depart="1277.0">
        <route edges="e_t t_n"/>
    </vehicle>
    <vehicle id="190" depart="1278.0">
        <route edges="s_t t_e e_t t_s"/>
    </vehicle>
    <vehicle id="191" depart="1279.0">
        <route edges="w_t t_s"/>
    </vehicle>
    <vehicle id="192" depart="1281.0">
        <route edges="w_t t_n"/>
    </vehicle>
    <vehicle id="193" depart="1291.0">
        <route edges="n_t t_s"/>
    </vehicle>
    <vehicle id="194" depart="1294.0">
        <route edges="w_t t_n"/>
    </vehicle>
    <vehicle id="195" depart="1296.0">
        <route edges="e_t t_n"/>
    </vehicle>
    <vehicle id="196" depart="1300.0">
        <route edges="e_t t_w"/>
    </vehicle>
    <vehicle id="197" depart="1300.0">
        <route edges="n_t t_e e_t t_n"/>
    </vehicle>
    <vehicle id="198" depart="1306.0">
        <route edges="s_t t_e"/>
    </vehicle>
    <vehicle id="199" depart="1307.0">
        <route edges="e_t t_s"/>
    </vehicle>
    <vehicle id="200" depart="1311.0">
        <route edges="n_t t_e"/>
    </vehicle>
    <vehicle id="201" depart="1329.0">
        <route edges="s_t t_e e_t t_s"/>
    </vehicle>
    <vehicle id="202" depart="1337.0">
        <route edges="s_t t_e"/>
    </vehicle>
    <vehicle id="203" depart="1343.0">
        <route edges="w_t t_n n_t t_w"/>
    </vehicle>
    <vehicle id="204" depart="1346.0">
        <route edges="e_t t_s"/>
    </vehicle>
    <vehicle id="205" depart="1346.0">
        <route edges="e_t t_s s_t t_e"/>
    </vehicle>
    <vehicle id="206" depart="1347.0">
        <route edges="n_t t_w"/>
    </vehicle>
    <vehicle id="207" depart="1352.0">
        <route edges="n_t t_s"/>
    </vehicle>
    <vehicle id="208" depart="1356.0">
        <route edges="w_t t_n"/>
    </vehicle>
    <vehicle id="209" depart="1374.0">
        <route edges="n_t t_e"/>
    </vehicle>
    <vehicle id="210" depart="1374.0">
        <route edges="e_t t_s"/>
    </vehicle>
    <vehicle id="211" depart="1374.0">
        <route edges="w_t t_n n_t t_w"/>
    </vehicle>
    <vehicle id="212" depart="1379.0">
        <route edges="n_t t_s"/>
    </vehicle>
    <vehicle id="213" depart="1389.0">
        <route edges="n_t t_s"/>
    </vehicle>
    <vehicle id="214" depart="1394.0">
        <route edges="e_t t_w"/>
    </vehicle>
    <vehicle id="215" depart="1397.0">
        <route edges="w_t t_n n_t t_w"/>
    </vehicle>
    <vehicle id="216" depart="1399.0">
        <route edges="s_t t_n"/>
    </vehicle>
    <vehicle id="217" depart="1400.0">
        <route edges="w_t t_s"/>
    </vehicle>
    <vehicle id="218" depart="1403.0">
        <route edges="s_t t_n"/>
    </vehicle>
    <vehicle id="219" depart="1408.0">
        <route edges="e_t t_s"/>
    </vehicle>
    <vehicle id="220" depart="1411.0">
        <route edges="n_t t_e"/>
    </vehicle>
    <vehicle id="221" depart="1420.0">
        <route edges="n_t t_e e_t t_n"/>
    </vehicle>
    <vehicle id="222" depart="1420.0">
        <route edges="e_t t_s s_t t_e"/>
    </vehicle>
    <vehicle id="223" depart="1422.0">
        <route edges="s_t t_n"/>
    </vehicle>
    <vehicle id="224" depart="1423.0">
        <route edges="s_t t_e e_t t_s"/>
    </vehicle>
    <vehicle id="225" depart="1427.0">
        <route edges="e_t t_s"/>
    </vehicle>
    <vehicle id="226" depart="1430.0">
        <route edges="w_t t_n"/>
    </vehicle>
    <vehicle id="227" depart="1434.0">
        <route edges="s_t t_e"/>
    </vehicle>
    <vehicle id="228" depart="1435.0">
        <route edges="n_t t_e e_t t_n"/>
    </vehicle>
    <vehicle id="229" depart="1435.0">
        <route edges="e_t t_s s_t t_e"/>
    </vehicle>
    <vehicle id="230" depart="1442.0">
        <route edges="n_t t_e e_t t_n"/>
    </vehicle>
    <vehicle id="231" depart="1443.0">
        <route edges="n_t t_e e_t t_n"/>
    </vehicle>
    <vehicle id="232" depart="1445.0">
        <route edges="e_t t_s"/>
    </vehicle>
    <vehicle id="233" depart="1445.0">
        <route edges="w_t t_n"/>
    </vehicle>
    <vehicle id="234" depart="1452.0">
        <route edges="n_t t_w"/>
    </vehicle>
    <vehicle id="235" depart="1452.0">
        <route edges="s_t t_n"/>
    </vehicle>
    <vehicle id="236" depart="1453.0">
        <route edges="n_t t_w"/>
    </vehicle>
    <vehicle id="237" depart="1455.0">
        <route edges="e_t t_w"/>
    </vehicle>
    <vehicle id="238" depart="1460.0">
        <route edges="n_t t_w"/>
    </vehicle>
    <vehicle id="239" depart="1462.0">
        <route edges="e_t t_s"/>
    </vehicle>
    <vehicle id="240" depart="1465.0">
        <route edges="n_t t_s"/>
    </vehicle>
    <vehicle id="241" depart="1470.0">
        <route edges="e_t t_n"/>
    </vehicle>
    <vehicle id="242" depart="1471.0">
        <route edges="n_t t_s"/>
    </vehicle>
    <vehicle id="243" depart="1471.0">
        <route edges="s_t t_w"/>
    </vehicle>
    <vehicle id="244" depart="1474.0">
        <route edges="n_t t_e"/>
    </vehicle>
    <vehicle id="245" depart="1475.0">
        <route edges="e_t t_w"/>
    </vehicle>
    <vehicle id="246" depart="1479.0">
        <route edges="s_t t_e e_t t_s"/>
    </vehicle>
    <vehicle id="247" depart="1485.0">
        <route edges="w_t t_n n_t t_w"/>
    </vehicle>
    <vehicle id="248" depart="1489.0">
        <route edges="s_t t_w"/>
    </vehicle>
    <vehicle id="249" depart="1493.0">
        <route edges="e_t t_w"/>
    </vehicle>
    <vehicle id="250" depart="1493.0">
        <route edges="e_t t_w"/>
    </vehicle>
    <vehicle id="251" depart="1495.0">
        <route edges="w_t t_s"/>
    </vehicle>
    <vehicle id="252" depart="1495.0">
        <route edges="n_t t_e"/>
    </vehicle>
    <vehicle id="253" depart="1498.0">
        <route edges="n_t t_e"/>
    </vehicle>
    <vehicle id="254" depart="1499.0">
        <route edges="n_t t_e"/>
    </vehicle>
    <vehicle id="255" depart="1504.0">
        <route edges="e_t t_w"/>
    </vehicle>
    <vehicle id="256" depart="1511.0">
        <route edges="w_t t_s"/>
    </vehicle>
    <vehicle id="257" depart="1511.0">
        <route edges="s_t t_w"/>
    </vehicle>
    <vehicle id="258" depart="1515.0">
        <route edges="s_t t_e e_t t_s"/>
    </vehicle>
    <vehicle id="259" depart="1515.0">
        <route edges="e_t t_s s_t t_e"/>
    </vehicle>
    <vehicle id="260" depart="1521.0">
        <route edges="s_t t_e e_t t_s"/>
    </vehicle>
    <vehicle id="261" depart="1522.0">
        <route edges="n_t t_w"/>
    </vehicle>
    <vehicle id="262" depart="1538.0">
        <route edges="n_t t_s"/>
    </vehicle>
    <vehicle id="263" depart="1540.0">
        <route edges="w_t t_n"/>
    </vehicle>
    <vehicle id="264" depart="1540.0">
        <route edges="w_t t_n"/>
    </vehicle>
    <vehicle id="265" depart="1549.0">
        <route edges="s_t t_e e_t t_s"/>
    </vehicle>
    <vehicle id="266" depart="1550.0">
        <route edges="s_t t_e e_t t_s"/>
    </vehicle>
    <vehicle id="267" depart="1551.0">
        <route edges="w_t t_n n_t t_w"/>
    </vehicle>
    <vehicle id="268" depart="1551.0">
        <route edges="s_t t_e e_t t_s"/>
    </vehicle>
    <vehicle id="269" depart="1553.0">
        <route edges="n_t t_s"/>
    </vehicle>
    <vehicle id="270" depart="1562.0">
        <route edges="w_t t_s"/>
    </vehicle>
    <vehicle id="271" depart="1570.0">
        <route edges="w_t t_e"/>
    </vehicle>
    <vehicle id="272" depart="1576.0">
        <route edges="e_t t_s s_t t_e"/>
    </vehicle>
    <vehicle id="273" depart="1584.0">
        <route edges="w_t t_n n_t t_w"/>
    </vehicle>
    <vehicle id="274" depart="1594.0">
        <route edges="n_t t_e"/>
    </vehicle>
    <vehicle id="275" depart="1602.0">
        <route edges="n_t t_w"/>
    </vehicle>
    <vehicle id="276" depart="1602.0">
        <route edges="w_t t_s"/>
    </vehicle>
    <vehicle id="277" depart="1603.0">
        <route edges="w_t t_n n_t t_w"/>
    </vehicle>
    <vehicle id="278" depart="1604.0">
        <route edges="e_t t_s s_t t_e"/>
    </vehicle>
    <vehicle id="279" depart="1609.0">
        <route edges="w_t t_n n_t t_w"/>
    </vehicle>
    <vehicle id="280" depart="1622.0">
        <route edges="w_t t_s"/>
    </vehicle>
    <vehicle id="281" depart="1629.0">
        <route edges="w_t t_e"/>
    </vehicle>
    <vehicle id="282" depart="1639.0">
        <route edges="n_t t_e"/>
    </vehicle>
    <vehicle id="283" depart="1640.0">
        <route edges="w_t t_n n_t t_w"/>
    </vehicle>
    <vehicle id="284" depart="1661.0">
        <route edges="s_t t_e e_t t_s"/>
    </vehicle>
    <vehicle id="285" depart="1666.0">
        <route edges="s_t t_e e_t t_s"/>
    </vehicle>
    <vehicle id="286" depart="1666.0">
        <route edges="n_t t_e"/>
    </vehicle>
    <vehicle id="287" depart="1668.0">
        <route edges="w_t t_n n_t t_w"/>
    </vehicle>
    <vehicle id="288" depart="1669.0">
        <route edges="n_t t_e e_t t_n"/>
    </vehicle>
    <vehicle id="289" depart="1672.0">
        <route edges="n_t t_w"/>
    </vehicle>
    <vehicle id="290" depart="1686.0">
        <route edges="n_t t_s"/>
    </vehicle>
    <vehicle id="291" depart="1691.0">
        <route edges="e_t t_w"/>
    </vehicle>
    <vehicle id="292" depart="1695.0">
        <route edges="s_t t_n"/>
    </vehicle>
    <vehicle id="293" depart="1703.0">
        <route edges="s_t t_e e_t t_s"/>
    </vehicle>
    <vehicle id="294" depart="1709.0">
        <route edges="s_t t_e"/>
    </vehicle>
    <vehicle id="295" depart="1711.0">
        <route edges="e_t t_s s_t t_e"/>
    </vehicle>
    <vehicle id="296" depart="1713.0">
        <route edges="s_t t_w"/>
    </vehicle>
    <vehicle id="297" depart="1717.0">
        <route edges="e_t t_w"/>
    </vehicle>
    <vehicle id="298" depart="1721.0">
        <route edges="w_t t_n"/>
    </vehicle>
    <vehicle id="299" depart="1723.0">
        <route edges="n_t t_e"/>
    </vehicle>
    <vehicle id="300" depart="1727.0">
        <route edges="w_t t_n"/>
    </vehicle>
    <vehicle id="301" depart="1728.0">
        <route edges="w_t t_n"/>
    </vehicle>
    <vehicle id="302" depart="1728.0">
        <route edges="n_t t_s"/>
    </vehicle>
    <vehicle id="303" depart="1730.0">
        <route edges="w_t t_s"/>
    </vehicle>
    <vehicle id="304" depart="1732.0">
        <route edges="s_t t_n"/>
    </vehicle>
    <vehicle id="305" depart="1732.0">
        <route edges="e_t t_s s_t t_e"/>
    </vehicle>
    <vehicle id="306" depart="1735.0">
        <route edges="w_t t_e"/>
    </vehicle>
    <vehicle id="307" depart="1737.0">
        <route edges="w_t t_s"/>
    </vehicle>
    <vehicle id="308" depart="1739.0">
        <route edges="n_t t_e e_t t_n"/>
    </vehicle>
    <vehicle id="309" depart="1741.0">
        <route edges="n_t t_s"/>
    </vehicle>
    <vehicle id="310" depart="1743.0">
        <route edges="s_t t_w"/>
    </vehicle>
    <vehicle id="311" depart="1755.0">
        <route edges="n_t t_s"/>
    </vehicle>
    <vehicle id="312" depart="1760.0">
        <route edges="e_t t_s"/>
    </vehicle>
    <vehicle id="313" depart="1782.0">
        <route edges="e_t t_w"/>
    </vehicle>
    <vehicle id="314" depart="1783.0">
        <route edges="w_t t_n"/>
    </vehicle>
    <vehicle id="315" depart="1791.0">
        <route edges="e_t t_s s_t t_e"/>
    </vehicle>
    <vehicle id="316" depart="1805.0">
        <route edges="s_t t_e"/>
    </vehicle>
    <vehicle id="317" depart="1807.0">
        <route edges="n_t t_e"/>
    </vehicle>
    <vehicle id="318" depart="1808.0">
        <route edges="e_t t_s s_t t_e"/>
    </vehicle>
    <vehicle id="319" depart="1823.0">
        <route edges="w_t t_n n_t t_w"/>
    </vehicle>
    <vehicle id="320" depart="1847.0">
        <route edges="n_t t_s"/>
    </vehicle>
    <vehicle id="321" depart="1847.0">
        <route edges="e_t t_s"/>
    </vehicle>
    <vehicle id="322" depart="1855.0">
        <route edges="e_t t_s"/>
    </vehicle>
    <vehicle id="323" depart="1867.0">
        <route edges="n_t t_w"/>
    </vehicle>
    <vehicle id="324" depart="1872.0">