<?xml version="1.0" encoding="UTF-8"?>

<!-- generated on 2023-06-30 22:46:31.008268 by randomTrips.py UNKNOWN
<configuration>
    <net-file value="nets/2way-single-intersection/single-intersection.net.xml"/>
    <route-file value="training/routes/2x2_tr_ep19.rou.xml"/>
    <seed value="19"/>
    <validate value="True"/>
    <end value="500.0"/>
</configuration>
-->

<!-- generated on 2023-06-30 22:46:30 by Eclipse SUMO duarouter Version v1_17_0+1256-16eabe86c67
<configuration xmlns:xsi="http://www.w3.org/2001/XMLSchema-instance" xsi:noNamespaceSchemaLocation="http://sumo.dlr.de/xsd/duarouterConfiguration.xsd">

    <input>
        <net-file value="nets/2way-single-intersection/single-intersection.net.xml"/>
        <route-files value="trips.trips.xml"/>
    </input>

    <output>
        <output-file value="training/routes/2x2_tr_ep19.rou.xml"/>
        <alternatives-output value="NUL"/>
    </output>

    <time>
        <begin value="0"/>
        <end value="500.0"/>
    </time>

    <report>
        <no-warnings value="true"/>
        <ignore-errors value="true"/>
        <no-step-log value="true"/>
    </report>

</configuration>
-->

<routes xmlns:xsi="http://www.w3.org/2001/XMLSchema-instance" xsi:noNamespaceSchemaLocation="http://sumo.dlr.de/xsd/routes_file.xsd">
    <vehicle id="0" depart="39.0">
        <route edges="s_t t_w"/>
    </vehicle>
    <vehicle id="1" depart="54.0">
        <route edges="s_t t_e e_t t_s"/>
    </vehicle>
    <vehicle id="2" depart="102.0">
        <route edges="n_t t_w"/>
    </vehicle>
    <vehicle id="3" depart="139.0">
        <route edges="n_t t_e"/>
    </vehicle>
    <vehicle id="4" depart="182.0">
        <route edges="n_t t_e e_t t_n"/>
    </vehicle>
    <vehicle id="5" depart="190.0">
        <route edges="n_t t_e e_t t_n"/>
    </vehicle>
    <vehicle id="6" depart="212.0">
        <route edges="e_t t_n"/>
    </vehicle>
    <vehicle id="7" depart="230.0">
        <route edges="n_t t_s"/>
    </vehicle>
    <vehicle id="8" depart="236.0">
        <route edges="e_t t_s s_t t_e"/>
    </vehicle>
    <vehicle id="9" depart="237.0">
        <route edges="e_t t_s"/>
    </vehicle>
    <vehicle id="10" depart="241.0">
        <route edges="n_t t_s"/>
    </vehicle>
    <vehicle id="11" depart="246.0">
        <route edges="w_t t_n"/>
    </vehicle>
    <vehicle id="12" depart="250.0">
        <route edges="e_t t_s"/>
    </vehicle>
    <vehicle id="13" depart="284.0">
        <route edges="w_t t_n"/>
    </vehicle>
    <vehicle id="14" depart="285.0">
        <route edges="s_t t_n"/>
    </vehicle>
    <vehicle id="15" depart="285.0">
        <route edges="w_t t_n n_t t_w"/>
    </vehicle>
    <vehicle id="16" depart="299.0">
        <route edges="w_t t_n n_t t_w"/>
    </vehicle>
    <vehicle id="17" depart="319.0">
        <route edges="e_t t_s"/>
    </vehicle>
    <vehicle id="18" depart="322.0">
        <route edges="s_t t_w"/>
    </vehicle>
    <vehicle id="19" depart="336.0">
        <route edges="n_t t_e"/>
    </vehicle>
    <vehicle id="20" depart="336.0">
        <route edges="s_t t_e"/>
    </vehicle>
    <vehicle id="21" depart="366.0">
        <route edges="s_t t_e"/>
    </vehicle>
    <vehicle id="22" depart="389.0">
        <route edges="n_t t_e e_t t_n"/>
    </vehicle>
    <vehicle id="23" depart="390.0">
        <route edges="e_t t_n"/>
    </vehicle>
    <vehicle id="24" depart="394.0">
        <route edges="s_t t_n"/>
    </vehicle>
    <vehicle id="25" depart="397.0">
        <route edges="w_t t_n n_t t_w"/>
    </vehicle>
    <vehicle id="26" depart="401.0">
        <route edges="w_t t_e"/>
    </vehicle>
    <vehicle id="27" depart="405.0">
        <route edges="e_t t_n"/>
    </vehicle>
    <vehicle id="28" depart="410.0">
        <route edges="e_t t_s"/>
    </vehicle>
    <vehicle id="29" depart="422.0">
        <route edges="n_t t_e"/>
    </vehicle>
    <vehicle id="30" depart="424.0">
        <route edges="n_t t_e e_t t_n"/>
    </vehicle>
    <vehicle id="31" depart="431.0">
        <route edges="s_t t_n"/>
    </vehicle>
    <vehicle id="32" depart="453.0">
        <route edges="n_t t_s"/>
    </vehicle>
    <vehicle id="33" depart="459.0">
        <route edges="e_t t_s s_t t_e"/>
    </vehicle>
    <vehicle id="34" depart="459.0">
        <route edges="s_t t_w"/>
    </vehicle>
    <vehicle id="35" depart="476.0">
        <route edges="e_t t_s s_t t_e"/>
    </vehicle>
    <vehicle id="36" depart="480.0">
        <route edges="s_t t_e e_t t_s"/>
    </vehicle>
    <vehicle id="37" depart="480.0">
        <route edges="e_t t_n"/>
    </vehicle>
    <vehicle id="38" depart="481.0">
        <route edges="n_t t_e"/>
    </vehicle>
    <vehicle id="39" depart="483.0">
        <route edges="e_t t_n"/>
    </vehicle>
    <vehicle id="40" depart="484.0">
        <route edges="n_t t_e"/>
    </vehicle>
    <vehicle id="41" depart="490.0">
        <route edges="s_t t_w"/>
    </vehicle>
    <vehicle id="42" depart="496.0">
        <route edges="s_t t_e"/>
    </vehicle>
    <vehicle id="43" depart="498.0">
        <route edges="s_t t_e e_t t_s"/>
    </vehicle>
    <vehicle id="44" depart="498.0">
        <route edges="e_t t_n"/>
    </vehicle>
    <vehicle id="45" depart="507.0">
        <route edges="s_t t_w"/>
    </vehicle>
    <vehicle id="46" depart="515.0">
        <route edges="w_t t_s"/>
    </vehicle>
    <vehicle id="47" depart="516.0">
        <route edges="s_t t_w"/>
    </vehicle>
    <vehicle id="48" depart="527.0">
        <route edges="e_t t_s"/>
    </vehicle>
    <vehicle id="49" depart="538.0">
        <route edges="e_t t_w"/>
    </vehicle>
    <vehicle id="50" depart="540.0">
        <route edges="s_t t_e"/>
    </vehicle>
    <vehicle id="51" depart="541.0">
        <route edges="e_t t_s"/>
    </vehicle>
    <vehicle id="52" depart="541.0">
        <route edges="w_t t_e"/>
    </vehicle>
    <vehicle id="53" depart="545.0">
        <route edges="n_t t_s"/>
    </vehicle>
    <vehicle id="54" depart="560.0">
        <route edges="n_t t_w"/>
    </vehicle>
    <vehicle id="55" depart="561.0">
        <route edges="s_t t_w"/>
    </vehicle>
    <vehicle id="56" depart="566.0">
        <route edges="s_t t_e e_t t_s"/>
    </vehicle>
    <vehicle id="57" depart="567.0">
        <route edges="n_t t_s"/>
    </vehicle>
    <vehicle id="58" depart="574.0">
        <route edges="n_t t_e e_t t_n"/>
    </vehicle>
    <vehicle id="59" depart="574.0">
        <route edges="e_t t_w"/>
    </vehicle>
    <vehicle id="60" depart="588.0">
        <route edges="e_t t_n"/>
    </vehicle>
    <vehicle id="61" depart="594.0">
        <route edges="w_t t_s"/>
    </vehicle>
    <vehicle id="62" depart="605.0">
        <route edges="w_t t_n"/>
    </vehicle>
    <vehicle id="63" depart="608.0">
        <route edges="n_t t_e e_t t_n"/>
    </vehicle>
    <vehicle id="64" depart="622.0">
        <route edges="n_t t_e e_t t_n"/>
    </vehicle>
    <vehicle id="65" depart="633.0">
        <route edges="n_t t_w"/>
    </vehicle>
    <vehicle id="66" depart="639.0">
        <route edges="w_t t_e"/>
    </vehicle>
    <vehicle id="67" depart="649.0">
        <route edges="s_t t_e e_t t_s"/>
    </vehicle>
    <vehicle id="68" depart="653.0">
        <route edges="n_t t_e"/>
    </vehicle>
    <vehicle id="69" depart="661.0">
        <route edges="n_t t_e e_t t_n"/>
    </vehicle>
    <vehicle id="70" depart="666.0">
        <route edges="n_t t_s"/>
    </vehicle>
    <vehicle id="71" depart="678.0">
        <route edges="n_t t_e e_t t_n"/>
    </vehicle>
    <vehicle id="72" depart="691.0">
        <route edges="n_t t_w"/>
    </vehicle>
    <vehicle id="73" depart="696.0">
        <route edges="n_t t_w"/>
    </vehicle>
    <vehicle id="74" depart="702.0">
        <route edges="e_t t_s"/>
    </vehicle>
    <vehicle id="75" depart="715.0">
        <route edges="s_t t_e e_t t_s"/>
    </vehicle>
    <vehicle id="76" depart="723.0">
        <route edges="s_t t_w"/>
    </vehicle>
    <vehicle id="77" depart="725.0">
        <route edges="s_t t_e"/>
    </vehicle>
    <vehicle id="78" depart="725.0">
        <route edges="s_t t_e e_t t_s"/>
    </vehicle>
    <vehicle id="79" depart="726.0">
        <route edges="e_t t_s"/>
    </vehicle>
    <vehicle id="80" depart="728.0">
        <route edges="w_t t_n"/>
    </vehicle>
    <vehicle id="81" depart="730.0">
        <route edges="e_t t_n"/>
    </vehicle>
    <vehicle id="82" depart="732.0">
        <route edges="s_t t_n"/>
    </vehicle>
    <vehicle id="83" depart="733.0">
        <route edges="e_t t_n"/>
    </vehicle>
    <vehicle id="84" depart="738.0">
        <route edges="s_t t_e e_t t_s"/>
    </vehicle>
    <vehicle id="85" depart="742.0">
        <route edges="n_t t_w"/>
    </vehicle>
    <vehicle id="86" depart="763.0">
        <route edges="s_t t_n"/>
    </vehicle>
    <vehicle id="87" depart="766.0">
        <route edges="n_t t_w"/>
    </vehicle>
    <vehicle id="88" depart="767.0">
        <route edges="e_t t_n"/>
    </vehicle>
    <vehicle id="89" depart="769.0">
        <route edges="n_t t_s"/>
    </vehicle>
    <vehicle id="90" depart="777.0">
        <route edges="w_t t_e"/>
    </vehicle>
    <vehicle id="91" depart="780.0">
        <route edges="e_t t_s s_t t_e"/>
    </vehicle>
    <vehicle id="92" depart="782.0">
        <route edges="e_t t_s"/>
    </vehicle>
    <vehicle id="93" depart="792.0">
        <route edges="n_t t_w"/>
    </vehicle>
    <vehicle id="94" depart="796.0">
        <route edges="n_t t_s"/>
    </vehicle>
    <vehicle id="95" depart="801.0">
        <route edges="e_t t_s s_t t_e"/>
    </vehicle>
    <vehicle id="96" depart="806.0">
        <route edges="n_t t_e"/>
    </vehicle>
    <vehicle id="97" depart="821.0">
        <route edges="w_t t_n"/>
    </vehicle>
    <vehicle id="98" depart="827.0">
        <route edges="e_t t_s"/>
    </vehicle>
    <vehicle id="99" depart="832.0">
        <route edges="e_t t_s s_t t_e"/>
    </vehicle>
    <vehicle id="100" depart="838.0">
        <route edges="s_t t_e"/>
    </vehicle>
    <vehicle id="101" depart="840.0">
        <route edges="w_t t_n"/>
    </vehicle>
    <vehicle id="102" depart="840.0">
        <route edges="e_t t_s"/>
    </vehicle>
    <vehicle id="103" depart="842.0">
        <route edges="w_t t_s"/>
    </vehicle>
    <vehicle id="104" depart="843.0">
        <route edges="w_t t_n n_t t_w"/>
    </vehicle>
    <vehicle id="105" depart="844.0">
        <route edges="n_t t_e e_t t_n"/>
    </vehicle>
    <vehicle id="106" depart="846.0">
        <route edges="s_t t_n"/>
    </vehicle>
    <vehicle id="107" depart="847.0">
        <route edges="w_t t_n"/>
    </vehicle>
    <vehicle id="108" depart="851.0">
        <route edges="e_t t_s s_t t_e"/>
    </vehicle>
    <vehicle id="109" depart="854.0">
        <route edges="n_t t_e"/>
    </vehicle>
    <vehicle id="110" depart="856.0">
        <route edges="s_t t_w"/>
    </vehicle>
    <vehicle id="111" depart="857.0">
        <route edges="w_t t_n n_t t_w"/>
    </vehicle>
    <vehicle id="112" depart="859.0">
        <route edges="e_t t_s s_t t_e"/>
    </vehicle>
    <vehicle id="113" depart="860.0">
        <route edges="e_t t_w"/>
    </vehicle>
    <vehicle id="114" depart="861.0">
        <route edges="e_t t_s s_t t_e"/>
    </vehicle>
    <vehicle id="115" depart="866.0">
        <route edges="s_t t_w"/>
    </vehicle>
    <vehicle id="116" depart="870.0">
        <route edges="s_t t_e"/>
    </vehicle>
    <vehicle id="117" depart="875.0">
        <route edges="e_t t_w"/>
    </vehicle>
    <vehicle id="118" depart="884.0">
        <route edges="s_t t_n"/>
    </vehicle>
    <vehicle id="119" depart="885.0">
        <route edges="w_t t_n"/>
    </vehicle>
    <vehicle id="120" depart="891.0">
        <route edges="e_t t_w"/>
    </vehicle>
    <vehicle id="121" depart="894.0">
        <route edges="e_t t_n"/>
    </vehicle>
    <vehicle id="122" depart="899.0">
        <route edges="e_t t_s"/>
    </vehicle>
    <vehicle id="123" depart="899.0">
        <route edges="n_t t_e e_t t_n"/>
    </vehicle>
    <vehicle id="124" depart="903.0">
        <route edges="s_t t_e"/>
    </vehicle>
    <vehicle id="125" depart="908.0">
        <route edges="w_t t_n n_t t_w"/>
    </vehicle>
    <vehicle id="126" depart="912.0">
        <route edges="e_t t_s"/>
    </vehicle>
    <vehicle id="127" depart="912.0">
        <route edges="n_t t_s"/>
    </vehicle>
    <vehicle id="128" depart="914.0">
        <route edges="n_t t_e"/>
    </vehicle>
    <vehicle id="129" depart="923.0">
        <route edges="n_t t_e"/>
    </vehicle>
    <vehicle id="130" depart="925.0">
        <route edges="w_t t_n n_t t_w"/>
    </vehicle>
    <vehicle id="131" depart="929.0">
        <route edges="e_t t_s"/>
    </vehicle>
    <vehicle id="132" depart="932.0">
        <route edges="e_t t_s s_t t_e"/>
    </vehicle>
    <vehicle id="133" depart="933.0">
        <route edges="n_t t_s"/>
    </vehicle>
    <vehicle id="134" depart="940.0">
        <route edges="e_t t_w"/>
    </vehicle>
    <vehicle id="135" depart="941.0">
        <route edges="n_t t_e"/>
    </vehicle>
    <vehicle id="136" depart="942.0">
        <route edges="n_t t_w"/>
    </vehicle>
    <vehicle id="137" depart="942.0">
        <route edges="n_t t_s"/>
    </vehicle>
    <vehicle id="138" depart="955.0">
        <route edges="w_t t_s"/>
    </vehicle>
    <vehicle id="139" depart="958.0">
        <route edges="n_t t_e"/>
    </vehicle>
    <vehicle id="140" depart="958.0">
        <route edges="s_t t_e e_t t_s"/>
    </vehicle>
    <vehicle id="141" depart="963.0">
        <route edges="s_t t_e"/>
    </vehicle>
    <vehicle id="142" depart="965.0">
        <route edges="e_t t_w"/>
    </vehicle>
    <vehicle id="143" depart="965.0">
        <route edges="s_t t_w"/>
    </vehicle>
    <vehicle id="144" depart="971.0">
        <route edges="w_t t_n"/>
    </vehicle>
    <vehicle id="145" depart="971.0">
        <route edges="e_t t_w"/>
    </vehicle>
    <vehicle id="146" depart="973.0">
        <route edges="w_t t_e"/>
    </vehicle>
    <vehicle id="147" depart="978.0">
        <route edges="s_t t_e e_t t_s"/>
    </vehicle>
    <vehicle id="148" depart="982.0">
        <route edges="e_t t_s"/>
    </vehicle>
    <vehicle id="149" depart="983.0">
        <route edges="s_t t_n"/>
    </vehicle>
    <vehicle id="150" depart="985.0">
        <route edges="n_t t_w"/>
    </vehicle>
    <vehicle id="151" depart="988.0">
        <route edges="s_t t_n"/>
    </vehicle>
    <vehicle id="152" depart="992.0">
        <route edges="w_t t_n n_t t_w"/>
    </vehicle>
    <vehicle id="153" depart="994.0">
        <route edges="n_t t_s"/>
    </vehicle>
    <vehicle id="154" depart="997.0">
        <route edges="e_t t_s s_t t_e"/>
    </vehicle>
    <vehicle id="155" depart="1009.0">
        <route edges="w_t t_n n_t t_w"/>
    </vehicle>
    <vehicle id="156" depart="1011.0">
        <route edges="w_t t_e"/>
    </vehicle>
    <vehicle id="157" depart="1012.0">
        <route edges="s_t t_n"/>
    </vehicle>
    <vehicle id="158" depart="1013.0">
        <route edges="e_t t_w"/>
    </vehicle>
    <vehicle id="159" depart="1013.0">
        <route edges="e_t t_s s_t t_e"/>
    </vehicle>
    <vehicle id="160" depart="1013.0">
        <route edges="n_t t_e"/>
    </vehicle>
    <vehicle id="161" depart="1019.0">
        <route edges="n_t t_s"/>
    </vehicle>
    <vehicle id="162" depart="1024.0">
        <route edges="s_t t_w"/>
    </vehicle>
    <vehicle id="163" depart="1036.0">
        <route edges="n_t t_e"/>
    </vehicle>
    <vehicle id="164" depart="1040.0">
        <route edges="s_t t_e"/>
    </vehicle>
    <vehicle id="165" depart="1043.0">
        <route edges="s_t t_e"/>
    </vehicle>
    <vehicle id="166" depart="1044.0">
        <route edges="n_t t_e e_t t_n"/>
    </vehicle>
    <vehicle id="167" depart="1047.0">
        <route edges="w_t t_e"/>
    </vehicle>
    <vehicle id="168" depart="1047.0">
        <route edges="n_t t_e e_t t_n"/>
    </vehicle>
    <vehicle id="169" depart="1049.0">
        <route edges="s_t t_n"/>
    </vehicle>
    <vehicle id="170" depart="1058.0">
        <route edges="w_t t_n n_t t_w"/>
    </vehicle>
    <vehicle id="171" depart="1069.0">
        <route edges="w_t t_s"/>
    </vehicle>
    <vehicle id="172" depart="1073.0">
        <route edges="w_t t_s"/>
    </vehicle>
    <vehicle id="173" depart="1073.0">
        <route edges="e_t t_s s_t t_e"/>
    </vehicle>
    <vehicle id="174" depart="1079.0">
        <route edges="e_t t_w"/>
    </vehicle>
    <vehicle id="175" depart="1080.0">
        <route edges="s_t t_e"/>
    </vehicle>
    <vehicle id="176" depart="1083.0">
        <route edges="n_t t_e"/>
    </vehicle>
    <vehicle id="177" depart="1098.0">
        <route edges="s_t t_n"/>
    </vehicle>
    <vehicle id="178" depart="1101.0">
        <route edges="n_t t_e e_t t_n"/>
    </vehicle>
    <vehicle id="179" depart="1102.0">
        <route edges="n_t t_e e_t t_n"/>
    </vehicle>
    <vehicle id="180" depart="1102.0">
        <route edges="w_t t_e"/>
    </vehicle>
    <vehicle id="181" depart="1106.0">
        <route edges="w_t t_s"/>
    </vehicle>
    <vehicle id="182" depart="1116.0">
        <route edges="w_t t_e"/>
    </vehicle>
    <vehicle id="183" depart="1119.0">
        <route edges="n_t t_w"/>
    </vehicle>
    <vehicle id="184" depart="1128.0">
        <route edges="w_t t_n"/>
    </vehicle>
    <vehicle id="185" depart="1137.0">
        <route edges="n_t t_e e_t t_n"/>
    </vehicle>
    <vehicle id="186" depart="1160.0">
        <route edges="n_t t_w"/>
    </vehicle>
    <vehicle id="187" depart="1166.0">
        <route edges="s_t t_n"/>
    </vehicle>
    <vehicle id="188" depart="1176.0">
        <route edges="w_t t_s"/>
    </vehicle>
    <vehicle id="189" depart="1181.0">
        <route edges="w_t t_s"/>
    </vehicle>
    <vehicle id="190" depart="1185.0">
        <route edges="n_t t_e"/>
    </vehicle>
    <vehicle id="191" depart="1190.0">
        <route edges="n_t t_s"/>
    </vehicle>
    <vehicle id="192" depart="1195.0">
        <route edges="s_t t_w"/>
    </vehicle>
    <vehicle id="193" depart="1196.0">
        <route edges="n_t t_s"/>
    </vehicle>
    <vehicle id="194" depart="1197.0">
        <route edges="w_t t_n n_t t_w"/>
    </vehicle>
    <vehicle id="195" depart="1206.0">
        <route edges="w_t t_n"/>
    </vehicle>
    <vehicle id="196" depart="1209.0">
        <route edges="w_t t_s"/>
    </vehicle>
    <vehicle id="197" depart="1210.0">
        <route edges="n_t t_s"/>
    </vehicle>
    <vehicle id="198" depart="1213.0">
        <route edges="w_t t_n n_t t_w"/>
    </vehicle>
    <vehicle id="199" depart="1214.0">
        <route edges="e_t t_n"/>
    </vehicle>
    <vehicle id="200" depart="1215.0">
        <route edges="s_t t_e"/>
    </vehicle>
    <vehicle id="201" depart="1220.0">
        <route edges="w_t t_n n_t t_w"/>
    </vehicle>
    <vehicle id="202" depart="1221.0">
        <route edges="s_t t_w"/>
    </vehicle>
    <vehicle id="203" depart="1223.0">
        <route edges="n_t t_e e_t t_n"/>
    </vehicle>
    <vehicle id="204" depart="1228.0">
        <route edges="w_t t_s"/>
    </vehicle>
    <vehicle id="205" depart="1231.0">
        <route edges="e_t t_n"/>
    </vehicle>
    <vehicle id="206" depart="1237.0">
        <route edges="n_t t_w"/>
    </vehicle>
    <vehicle id="207" depart="1239.0">
        <route edges="w_t t_e"/>
    </vehicle>
    <vehicle id="208" depart="1248.0">
        <route edges="s_t t_w"/>
    </vehicle>
    <vehicle id="209" depart="1248.0">
        <route edges="e_t t_n"/>
    </vehicle>
    <vehicle id="210" depart="1248.0">
        <route edges="e_t t_n"/>
    </vehicle>
    <vehicle id="211" depart="1250.0">
        <route edges="s_t t_e e_t t_s"/>
    </vehicle>
    <vehicle id="212" depart="1252.0">
        <route edges="n_t t_s"/>
    </vehicle>
    <vehicle id="213" depart="1252.0">
        <route edges="s_t t_n"/>
    </vehicle>
    <vehicle id="214" depart="1254.0">
        <route edges="s_t t_w"/>
    </vehicle>
    <vehicle id="215" depart="1257.0">
        <route edges="w_t t_n"/>
    </vehicle>
    <vehicle id="216" depart="1262.0">
        <route edges="w_t t_n"/>
    </vehicle>
    <vehicle id="217" depart="1265.0">
        <route edges="n_t t_e"/>
    </vehicle>
    <vehicle id="218" depart="1269.0">
        <route edges="n_t t_e"/>
    </vehicle>
    <vehicle id="219" depart="1282.0">
        <route edges="w_t t_n"/>
    </vehicle>
    <vehicle id="220" depart="1285.0">
        <route edges="n_t t_w"/>
    </vehicle>
    <vehicle id="221" depart="1289.0">
        <route edges="s_t t_n"/>
    </vehicle>
    <vehicle id="222" depart="1294.0">
        <route edges="w_t t_s"/>
    </vehicle>
    <vehicle id="223" depart="1306.0">
        <route edges="w_t t_n"/>
    </vehicle>
    <vehicle id="224" depart="1307.0">
        <route edges="w_t t_n n_t t_w"/>
    </vehicle>
    <vehicle id="225" depart="1319.0">
        <route edges="n_t t_w"/>
    </vehicle>
    <vehicle id="226" depart="1322.0">
        <route edges="w_t t_s"/>
    </vehicle>
    <vehicle id="227" depart="1324.0">
        <route edges="w_t t_e"/>
    </vehicle>
    <vehicle id="228" depart="1331.0">
        <route edges="e_t t_w"/>
    </vehicle>
    <vehicle id="229" depart="1333.0">
        <route edges="w_t t_e"/>
    </vehicle>
    <vehicle id="230" depart="1335.0">
        <route edges="w_t t_e"/>
    </vehicle>
    <vehicle id="231" depart="1335.0">
        <route edges="w_t t_n n_t t_w"/>
    </vehicle>
    <vehicle id="232" depart="1337.0">
        <route edges="s_t t_n"/>
    </vehicle>
    <vehicle id="233" depart="1347.0">
        <route edges="w_t t_n n_t t_w"/>
    </vehicle>
    <vehicle id="234" depart="1349.0">
        <route edges="e_t t_n"/>
    </vehicle>
    <vehicle id="235" depart="1355.0">
        <route edges="s_t t_w"/>
    </vehicle>
    <vehicle id="236" depart="1356.0">
        <route edges="e_t t_w"/>
    </vehicle>
    <vehicle id="237" depart="1356.0">
        <route edges="s_t t_w"/>
    </vehicle>
    <vehicle id="238" depart="1358.0">
        <route edges="e_t t_n"/>
    </vehicle>
    <vehicle id="239" depart="1360.0">
        <route edges="s_t t_w"/>
    </vehicle>
    <vehicle id="240" depart="1361.0">
        <route edges="n_t t_w"/>
    </vehicle>
    <vehicle id="241" depart="1368.0">
        <route edges="s_t t_w"/>
    </vehicle>
    <vehicle id="242" depart="1375.0">
        <route edges="w_t t_e"/>
    </vehicle>
    <vehicle id="243" depart="1377.0">
        <route edges="e_t t_n"/>
    </vehicle>
    <vehicle id="244" depart="1378.0">
        <route edges="s_t t_e e_t t_s"/>
    </vehicle>
    <vehicle id="245" depart="1379.0">
        <route edges="s_t t_n"/>
    </vehicle>
    <vehicle id="246" depart="1380.0">
        <route edges="e_t t_n"/>
    </vehicle>
    <vehicle id="247" depart="1386.0">
        <route edges="w_t t_e"/>
    </vehicle>
    <vehicle id="248" depart="1389.0">
        <route edges="e_t t_s"/>
    </vehicle>
    <vehicle id="249" depart="1392.0">
        <route edges="e_t t_w"/>
    </vehicle>
    <vehicle id="250" depart="1407.0">
        <route edges="n_t t_e"/>
    </vehicle>
    <vehicle id="251" depart="1413.0">
        <route edges="n_t t_s"/>
    </vehicle>
    <vehicle id="252" depart="1429.0">
        <route edges="s_t t_e"/>
    </vehicle>
    <vehicle id="253" depart="1436.0">
        <route edges="w_t t_e"/>
    </vehicle>
    <vehicle id="254" depart="1440.0">
        <route edges="e_t t_s s_t t_e"/>
    </vehicle>
    <vehicle id="255" depart="1449.0">
        <route edges="w_t t_s"/>
    </vehicle>
    <vehicle id="256" depart="1454.0">
        <route edges="s_t t_n"/>
    </vehicle>
    <vehicle id="257" depart="1456.0">
        <route edges="n_t t_e e_t t_n"/>
    </vehicle>
    <vehicle id="258" depart="1466.0">
        <route edges="e_t t_s"/>
    </vehicle>
    <vehicle id="259" depart="1469.0">
        <route edges="n_t t_w"/>
    </vehicle>
    <vehicle id="260" depart="1479.0">
        <route edges="w_t t_e"/>
    </vehicle>
    <vehicle id="261" depart="1485.0">
        <route edges="w_t t_e"/>
    </vehicle>
    <vehicle id="262" depart="1488.0">
        <route edges="w_t t_n"/>
    </vehicle>
    <vehicle id="263" depart="1490.0">
        <route edges="w_t t_s"/>
    </vehicle>
    <vehicle id="264" depart="1495.0">
        <route edges="n_t t_e e_t t_n"/>
    </vehicle>
    <vehicle id="265" depart="1501.0">
        <route edges="s_t t_e e_t t_s"/>
    </vehicle>
    <vehicle id="266" depart="1504.0">
        <route edges="e_t t_n"/>
    </vehicle>
    <vehicle id="267" depart="1506.0">
        <route edges="n_t t_w"/>
    </vehicle>
    <vehicle id="268" depart="1507.0">
        <route edges="e_t t_s s_t t_e"/>
    </vehicle>
    <vehicle id="269" depart="1522.0">
        <route edges="e_t t_n"/>
    </vehicle>
    <vehicle id="270" depart="1528.0">
        <route edges="n_t t_e e_t t_n"/>
    </vehicle>
    <vehicle id="271" depart="1533.0">
        <route edges="e_t t_w"/>
    </vehicle>
    <vehicle id="272" depart="1534.0">
        <route edges="e_t t_s"/>
    </vehicle>
    <vehicle id="273" depart="1534.0">
        <route edges="e_t t_n"/>
    </vehicle>
    <vehicle id="274" depart="1537.0">
        <route edges="n_t t_s"/>
    </vehicle>
    <vehicle id="275" depart="1544.0">
        <route edges="e_t t_s s_t t_e"/>
    </vehicle>
    <vehicle id="276" depart="1545.0">
        <route edges="e_t t_s"/>
    </vehicle>
    <vehicle id="277" depart="1548.0">
        <route edges="e_t t_s"/>
    </vehicle>
    <vehicle id="278" depart="1551.0">
        <route edges="n_t t_e"/>
    </vehicle>
    <vehicle id="279" depart="1554.0">
        <route edges="w_t t_s"/>
    </vehicle>
    <vehicle id="280" depart="1562.0">
        <route edges="e_t t_n"/>
    </vehicle>
    <vehicle id="281" depart="1565.0">
        <route edges="s_t t_n"/>
    </vehicle>
    <vehicle id="282" depart="1571.0">
        <route edges="s_t t_e e_t t_s"/>
    </vehicle>
    <vehicle id="283" depart="1572.0">
        <route edges="s_t t_n"/>
    </vehicle>
    <vehicle id="284" depart="1583.0">
        <route edges="s_t t_w"/>
    </vehicle>
    <vehicle id="285" depart="1583.0">
        <route edges="e_t t_n"/>
    </vehicle>
    <vehicle id="286" depart="1586.0">
        <route edges="n_t t_e"/>
    </vehicle>
    <vehicle id="287" depart="1601.0">
        <route edges="n_t t_e"/>
    </vehicle>
    <vehicle id="288" depart="1604.0">
        <route edges="s_t t_e e_t t_s"/>
    </vehicle>
    <vehicle id="289" depart="1605.0">
        <route edges="s_t t_n"/>
    </vehicle>
    <vehicle id="290" depart="1606.0">
        <route edges="w_t t_n n_t t_w"/>
    </vehicle>
    <vehicle id="291" depart="1606.0">
        <route edges="s_t t_e"/>
    </vehicle>
    <vehicle id="292" depart="1608.0">
        <route edges="e_t t_w"/>
    </vehicle>
    <vehicle id="293" depart="1608.0">
        <route edges="e_t t_s"/>
    </vehicle>
    <vehicle id="294" depart="1610.0">
        <route edges="w_t t_n"/>
    </vehicle>
    <vehicle id="295" depart="1613.0">
        <route edges="n_t t_e e_t t_n"/>
    </vehicle>
    <vehicle id="296" depart="1618.0">
        <route edges="s_t t_n"/>
    </vehicle>
    <vehicle id="297" depart="1621.0">
        <route edges="e_t t_w"/>
    </vehicle>
    <vehicle id="298" depart="1624.0">
        <route edges="n_t t_w"/>
    </vehicle>
    <vehicle id="299" depart="1629.0">
        <route edges="n_t t_e"/>
    </vehicle>
    <vehicle id="300" depart="1629.0">
        <route edges="e_t t_n"/>
    </vehicle>
    <vehicle id="301" depart="1631.0">
        <route edges="w_t t_n"/>
    </vehicle>
    <vehicle id="302" depart="1634.0">
        <route edges="e_t t_n"/>
    </vehicle>
    <vehicle id="303" depart="1641.0">
        <route edges="n_t t_s"/>
    </vehicle>
    <vehicle id="304" depart="1645.0">
        <route edges="e_t t_n"/>
    </vehicle>
    <vehicle id="305" depart="1645.0">
        <route edges="e_t t_n"/>
    </vehicle>
    <vehicle id="306" depart="1655.0">
        <route edges="s_t t_w"/>
    </vehicle>
    <vehicle id="307" depart="1659.0">
        <route edges="e_t t_s s_t t_e"/>
    </vehicle>
    <vehicle id="308" depart="1661.0">
        <route edges="e_t t_n"/>
    </vehicle>
    <vehicle id="309" depart="1663.0">
        <route edges="w_t t_n n_t t_w"/>
    </vehicle>
    <vehicle id="310" depart="1665.0">
        <route edges="n_t t_w"/>
    </vehicle>
    <vehicle id="311" depart="1671.0">
        <route edges="n_t t_e e_t t_n"/>
    </vehicle>
    <vehicle id="312" depart="1673.0">
        <route edges="e_t t_s"/>
    </vehicle>
    <vehicle id="313" depart="1676.0">
        <route edges="e_t t_w"/>
    </vehicle>
    <vehicle id="314" depart="1676.0">
        <route edges="w_t t_s"/>
    </vehicle>
    <vehicle id="315" depart="1679.0">
        <route edges="s_t t_n"/>
    </vehicle>
    <vehicle id="316" depart="1685.0">
        <route edges="n_t t_s"/>
    </vehicle>
    <vehicle id="317" depart="1697.0">
        <route edges="n_t t_s"/>
    </vehicle>
    <vehicle id="318" depart="1701.0">
        <route edges="e_t t_s"/>
    </vehicle>
    <vehicle id="319" depart="1707.0">
        <route edges="w_t t_s"/>
    </vehicle>
    <vehicle id="320" depart="1710.0">
        <route edges="n_t t_e e_t t_n"/>
    </vehicle>
    <vehicle id="321" depart="1714.0">
        <route edges="n_t t_e e_t t_n"/>
    </vehicle>
    <vehicle id="322" depart="1723.0">
        <route edges="w_t t_e"/>
    </vehicle>
    <vehicle id="323" depart="1736.0">
        <route edges="s_t t_e"/>
    </vehicle>
    <vehicle id="324" depart="1738.0">
        <route edges="s_t t_e e_t t_s"/>
    </vehicle>
    <vehicle id="325" depart="1744.0">
        <route edges="n_t t_e"/>
    </vehicle>